<?xml version="1.0" encoding="UTF-8"?>

<!-- generated on 2026-03-29 12:24:14.902415 by Eclipse SUMO osmWebWizard.py v1_26_0+0000-fa7df22d7f1
<configuration>
    <net-file value="C:\Users\deepa\Sumo\2026-03-29-12-23-58\osm.net.xml.gz"/>
    <output-trip-file value="C:\Users\deepa\Sumo\2026-03-29-12-23-58\osm.passenger.trips.xml"/>
    <route-file value="C:\Users\deepa\Sumo\2026-03-29-12-23-58\osm.passenger.rou.xml"/>
    <prefix value="veh"/>
    <trip-attributes value="departLane=&quot;best&quot;"/>
    <fringe-start-attributes value="departSpeed=&quot;max&quot;"/>
    <vehicle-class value="passenger"/>
    <lanes value="True"/>
    <fringe-factor value="5"/>
    <allow-fringe.min-length value="1000.0"/>
    <edge-permission value="passenger"/>
    <via-edge-types value="highway.motorway,highway.motorway_link,highway.trunk_link,highway.primary_link,highway.secondary_link,highway.tertiary_link"/>
    <min-distance value="300.0"/>
    <min-distance.fringe value="10.0"/>
    <remove-loops value="True"/>
    <insertion-density value="12.0"/>
</configuration>
-->

<routes xmlns:xsi="http://www.w3.org/2001/XMLSchema-instance" xsi:noNamespaceSchemaLocation="http://sumo.dlr.de/xsd/routes_file.xsd">
    <vType id="veh_passenger" vClass="passenger"/>
    <trip id="veh0" depart="0.00" from="1362783028#0" to="-1362783021#21" departLane="best" type="veh_passenger" departSpeed="max"/>
    <trip id="veh1" depart="1.07" from="-977740799" to="-978376418" departLane="best" type="veh_passenger" departSpeed="max"/>
    <trip id="veh2" depart="2.15" from="975892208#2" to="976551125" departLane="best" type="veh_passenger"/>
    <trip id="veh3" depart="3.22" from="978401451#0" to="-662611626#8" departLane="best" type="veh_passenger"/>
    <trip id="veh4" depart="4.29" from="-976844152#0" to="343905253#0" departLane="best" type="veh_passenger"/>
    <trip id="veh5" depart="5.37" from="-1362783021#23" to="-977784090#0" departLane="best" type="veh_passenger"/>
    <trip id="veh6" depart="6.44" from="1362783028#7" to="662611626#27" departLane="best" type="veh_passenger"/>
    <trip id="veh7" depart="7.51" from="-976844152#2" to="975914003#0" departLane="best" type="veh_passenger"/>
    <trip id="veh8" depart="8.58" from="976890895#2" to="-1362782998#11" departLane="best" type="veh_passenger"/>
    <trip id="veh9" depart="9.66" from="-977798544" to="-976844152#3" departLane="best" type="veh_passenger" departSpeed="max"/>
    <trip id="veh10" depart="10.73" from="978462811#1" to="-978599117" departLane="best" type="veh_passenger"/>
    <trip id="veh11" depart="11.80" from="-662611626#4" to="-975892207#1" departLane="best" type="veh_passenger"/>
    <trip id="veh12" depart="12.88" from="977804135#0" to="975946423" departLane="best" type="veh_passenger" departSpeed="max"/>
    <trip id="veh13" depart="13.95" from="976890890#6" to="976894041" departLane="best" type="veh_passenger"/>
    <trip id="veh14" depart="15.02" from="-978599123#5" to="978462811#3" departLane="best" type="veh_passenger"/>
    <trip id="veh15" depart="16.10" from="-978381532#0" to="662611626#3" departLane="best" type="veh_passenger"/>
    <trip id="veh16" depart="17.17" from="977784087#2" to="976046201#0" departLane="best" type="veh_passenger"/>
    <trip id="veh17" depart="18.24" from="978380691#0" to="975900362#2" departLane="best" type="veh_passenger"/>
    <trip id="veh18" depart="19.32" from="662611626#21" to="-343905253#15" departLane="best" type="veh_passenger"/>
    <trip id="veh19" depart="20.39" from="-976846730#1" to="-978451748#0" departLane="best" type="veh_passenger"/>
    <trip id="veh20" depart="21.46" from="-662611626#24" to="-978381531#0" departLane="best" type="veh_passenger"/>
    <trip id="veh21" depart="22.53" from="-850392277" to="-978443836" departLane="best" type="veh_passenger"/>
    <trip id="veh22" depart="23.61" from="1362783028#0" to="1006680167#0" departLane="best" type="veh_passenger" departSpeed="max"/>
    <trip id="veh23" depart="24.68" from="-978380691#2" to="-977795235#1" departLane="best" type="veh_passenger"/>
    <trip id="veh24" depart="25.75" from="-976894041" to="978455330#0" departLane="best" type="veh_passenger" departSpeed="max"/>
    <trip id="veh25" depart="26.83" from="1362783028#6" to="975971088" departLane="best" type="veh_passenger"/>
    <trip id="veh26" depart="27.90" from="-976166459" to="976894041" departLane="best" type="veh_passenger" departSpeed="max"/>
    <trip id="veh27" depart="28.97" from="978599123#0" to="976166461#0" departLane="best" type="veh_passenger" departSpeed="max"/>
    <trip id="veh28" depart="30.05" from="1362782998#9" to="976844152#7" departLane="best" type="veh_passenger"/>
    <trip id="veh29" depart="31.12" from="-976870333" to="-1362783021#8" departLane="best" type="veh_passenger" departSpeed="max"/>
    <trip id="veh30" depart="32.19" from="-977795230#4" to="-978402496#1" departLane="best" type="veh_passenger" departSpeed="max"/>
    <trip id="veh31" depart="33.27" from="-976551124" to="978456751#0" departLane="best" type="veh_passenger" departSpeed="max"/>
    <trip id="veh32" depart="34.34" from="978385191#1" to="-978458901#1" departLane="best" type="veh_passenger"/>
    <trip id="veh33" depart="35.41" from="978443836" to="1362783022#0" departLane="best" type="veh_passenger" departSpeed="max"/>
    <trip id="veh34" depart="36.48" from="-976894040#0" to="-978388684" departLane="best" type="veh_passenger"/>
    <trip id="veh35" depart="37.56" from="1362782999#1" to="-978401697#4" departLane="best" type="veh_passenger"/>
    <trip id="veh36" depart="38.63" from="1362783007#0" to="978403263" departLane="best" type="veh_passenger" departSpeed="max"/>
    <trip id="veh37" depart="39.70" from="-978388681#1" to="-978366613#3" departLane="best" type="veh_passenger" departSpeed="max"/>
    <trip id="veh38" depart="40.78" from="978602992" to="343905253#15" departLane="best" type="veh_passenger" departSpeed="max"/>
    <trip id="veh39" depart="41.85" from="-662611626#3" to="-343905253#17" departLane="best" type="veh_passenger"/>
    <trip id="veh40" depart="42.92" from="-975892208#1" to="976163605#2" departLane="best" type="veh_passenger"/>
    <trip id="veh41" depart="44.00" from="976844152#7" to="1362783010#1-AddedOffRampEdge" departLane="best" type="veh_passenger"/>
    <trip id="veh42" depart="45.07" from="-662611626#12" to="1362782998#4" departLane="best" type="veh_passenger"/>
    <trip id="veh43" depart="46.14" from="978602992" to="662611626#16" departLane="best" type="veh_passenger" departSpeed="max"/>
    <trip id="veh44" depart="47.22" from="978599117" to="978388681#1" departLane="best" type="veh_passenger" departSpeed="max"/>
    <trip id="veh45" depart="48.29" from="-1362783003" to="976890894" departLane="best" type="veh_passenger"/>
    <trip id="veh46" depart="49.36" from="343905253#18" to="662611626#21" departLane="best" type="veh_passenger"/>
    <trip id="veh47" depart="50.43" from="-975892208#5" to="1362783017" departLane="best" type="veh_passenger"/>
    <trip id="veh48" depart="51.51" from="-978451747#0" to="978462805" departLane="best" type="veh_passenger"/>
    <trip id="veh49" depart="52.58" from="978385191#0" to="-978401698#0" departLane="best" type="veh_passenger"/>
    <trip id="veh50" depart="53.65" from="-978462807#1" to="-976890901#1" departLane="best" type="veh_passenger" departSpeed="max"/>
    <trip id="veh51" depart="54.73" from="978443836" to="978396484" departLane="best" type="veh_passenger" departSpeed="max"/>
    <trip id="veh52" depart="55.80" from="-977784088#2" to="976166460#1" departLane="best" type="veh_passenger" departSpeed="max"/>
    <trip id="veh53" depart="56.87" from="1362783018#1" to="-976844152#0" departLane="best" type="veh_passenger"/>
    <trip id="veh54" depart="57.95" from="976163605#2" to="662611626#22" departLane="best" type="veh_passenger"/>
    <trip id="veh55" depart="59.02" from="976544774#2" to="662611626#17" departLane="best" type="veh_passenger"/>
    <trip id="veh56" depart="60.09" from="-1006680167#0" to="-978464388" departLane="best" type="veh_passenger"/>
    <trip id="veh57" depart="61.17" from="-1362783021#11" to="978455327#2" departLane="best" type="veh_passenger"/>
    <trip id="veh58" depart="62.24" from="978386282" to="978380691#1" departLane="best" type="veh_passenger"/>
    <trip id="veh59" depart="63.31" from="-977784091#1" to="-662611626#10" departLane="best" type="veh_passenger" departSpeed="max"/>
    <trip id="veh60" depart="64.38" from="978385193#0" to="978456751#2" departLane="best" type="veh_passenger"/>
    <trip id="veh61" depart="65.46" from="-662611626#27" to="1362783029#7" departLane="best" type="veh_passenger" departSpeed="max"/>
    <trip id="veh62" depart="66.53" from="-662611626#17" to="977784090#1" departLane="best" type="veh_passenger"/>
    <trip id="veh63" depart="67.60" from="976163605#7" to="-976163605#3" departLane="best" type="veh_passenger"/>
    <trip id="veh64" depart="68.68" from="-978455330#2" to="662611626#27" departLane="best" type="veh_passenger"/>
    <trip id="veh65" depart="69.75" from="-976894040#1" to="978396485" departLane="best" type="veh_passenger"/>
    <trip id="veh66" depart="70.82" from="-978401697#0" to="-977804135#0" departLane="best" type="veh_passenger"/>
    <trip id="veh67" depart="71.90" from="1006680167#1" to="976894041" departLane="best" type="veh_passenger"/>
    <trip id="veh68" depart="72.97" from="-976544774#2" to="-978456751#1" departLane="best" type="veh_passenger"/>
    <trip id="veh69" depart="74.04" from="978599123#4" to="976528397#1" departLane="best" type="veh_passenger"/>
    <trip id="veh70" depart="75.12" from="-978403691" to="343905253#5" departLane="best" type="veh_passenger" departSpeed="max"/>
    <trip id="veh71" depart="76.19" from="-975914000#1" to="-978376418" departLane="best" type="veh_passenger" departSpeed="max"/>
    <trip id="veh72" depart="77.26" from="-977798542" to="975914002#1" departLane="best" type="veh_passenger" departSpeed="max"/>
    <trip id="veh73" depart="78.33" from="-976870333" to="-978366613#4" departLane="best" type="veh_passenger" departSpeed="max"/>
    <trip id="veh74" depart="79.41" from="-662611626#18" to="976163605#7" departLane="best" type="veh_passenger"/>
    <trip id="veh75" depart="80.48" from="-976870333" to="978405431" departLane="best" type="veh_passenger" departSpeed="max"/>
    <trip id="veh76" depart="81.55" from="978376418" to="-662611626#21" departLane="best" type="veh_passenger" departSpeed="max"/>
    <trip id="veh77" depart="82.63" from="-976890886#3" to="976551123" departLane="best" type="veh_passenger" departSpeed="max"/>
    <trip id="veh78" depart="83.70" from="-976551125" to="-976163607#1" departLane="best" type="veh_passenger" departSpeed="max"/>
    <trip id="veh79" depart="84.77" from="978455329#1" to="975892208#0" departLane="best" type="veh_passenger"/>
    <trip id="veh80" depart="85.85" from="-978455329#0" to="977795232#1" departLane="best" type="veh_passenger"/>
    <trip id="veh81" depart="86.92" from="976890890#7" to="-976915562" departLane="best" type="veh_passenger"/>
    <trip id="veh82" depart="87.99" from="-662611626#7" to="1362783011#0-AddedOnRampEdge" departLane="best" type="veh_passenger"/>
    <trip id="veh83" depart="89.07" from="975873138#3" to="976551124" departLane="best" type="veh_passenger"/>
    <trip id="veh84" depart="90.14" from="978599121" to="-975892207#4" departLane="best" type="veh_passenger" departSpeed="max"/>
    <trip id="veh85" depart="91.21" from="-978393805" to="-978599118" departLane="best" type="veh_passenger" departSpeed="max"/>
    <trip id="veh86" depart="92.28" from="978380691#0" to="-978391071" departLane="best" type="veh_passenger"/>
    <trip id="veh87" depart="93.36" from="-976528397#3" to="1362783021#18" departLane="best" type="veh_passenger" departSpeed="max"/>
    <trip id="veh88" depart="94.43" from="-978401452#6" to="-978443836" departLane="best" type="veh_passenger" departSpeed="max"/>
    <trip id="veh89" depart="95.50" from="-976890891" to="978451748#4" departLane="best" type="veh_passenger" departSpeed="max"/>
    <trip id="veh90" depart="96.58" from="-978405431" to="978388681#1" departLane="best" type="veh_passenger" departSpeed="max"/>
    <trip id="veh91" depart="97.65" from="1362782998#1" to="-343905253#5" departLane="best" type="veh_passenger"/>
    <trip id="veh92" depart="98.72" from="978602992" to="978380691#7" departLane="best" type="veh_passenger" departSpeed="max"/>
    <trip id="veh93" depart="99.80" from="978464394#0" to="978451748#5" departLane="best" type="veh_passenger"/>
    <trip id="veh94" depart="100.87" from="977804135#0" to="-976890887#4" departLane="best" type="veh_passenger" departSpeed="max"/>
    <trip id="veh95" depart="101.94" from="-978456753" to="-977804135#0" departLane="best" type="veh_passenger"/>
    <trip id="veh96" depart="103.02" from="-978393805" to="-662611626#12" departLane="best" type="veh_passenger" departSpeed="max"/>
    <trip id="veh97" depart="104.09" from="-978381532#2" to="978464392#0" departLane="best" type="veh_passenger" departSpeed="max"/>
    <trip id="veh98" depart="105.16" from="-976894040#1" to="977795232#0" departLane="best" type="veh_passenger"/>
    <trip id="veh99" depart="106.23" from="-978451747#2" to="1362783010#1-AddedOffRampEdge" departLane="best" type="veh_passenger"/>
    <trip id="veh100" depart="107.31" from="978462811#1" to="978599119#1" departLane="best" type="veh_passenger"/>
    <trip id="veh101" depart="108.38" from="1362782998#7" to="976890894" departLane="best" type="veh_passenger"/>
    <trip id="veh102" depart="109.45" from="-975992330#1" to="-978455328#0" departLane="best" type="veh_passenger" departSpeed="max"/>
    <trip id="veh103" depart="110.53" from="978464392#0" to="975900363#1" departLane="best" type="veh_passenger"/>
    <trip id="veh104" depart="111.60" from="1323518792#1" to="977784086" departLane="best" type="veh_passenger"/>
    <trip id="veh105" depart="112.67" from="-343905253#6" to="975914000#1" departLane="best" type="veh_passenger"/>
    <trip id="veh106" depart="113.75" from="-978462808#0" to="978385191#1" departLane="best" type="veh_passenger"/>
    <trip id="veh107" depart="114.82" from="-976046201#1" to="978462806#1" departLane="best" type="veh_passenger"/>
    <trip id="veh108" depart="115.89" from="-662611626#24" to="-976906009" departLane="best" type="veh_passenger"/>
    <trip id="veh109" depart="116.97" from="1362783010#1-AddedOffRampEdge" to="976551125" departLane="best" type="veh_passenger"/>
    <trip id="veh110" depart="118.04" from="-976890885" to="-976046201#1" departLane="best" type="veh_passenger"/>
    <trip id="veh111" depart="119.11" from="978396484" to="-978388684" departLane="best" type="veh_passenger"/>
    <trip id="veh112" depart="120.18" from="1362783010#1" to="976046201#1" departLane="best" type="veh_passenger"/>
    <trip id="veh113" depart="121.26" from="-978401452#4" to="975914000#1" departLane="best" type="veh_passenger"/>
    <trip id="veh114" depart="122.33" from="-978464392#0" to="978455329#0" departLane="best" type="veh_passenger"/>
    <trip id="veh115" depart="123.40" from="-976544776" to="976890892" departLane="best" type="veh_passenger" departSpeed="max"/>
    <trip id="veh116" depart="124.48" from="-976890886#3" to="1362783000#2" departLane="best" type="veh_passenger" departSpeed="max"/>
    <trip id="veh117" depart="125.55" from="276612292#5" to="-978455329#0" departLane="best" type="veh_passenger"/>
    <trip id="veh118" depart="126.62" from="-977795230#4" to="977784087#1" departLane="best" type="veh_passenger" departSpeed="max"/>
    <trip id="veh119" depart="127.70" from="-662611626#19" to="1362783021#8" departLane="best" type="veh_passenger"/>
    <trip id="veh120" depart="128.77" from="978602992" to="978599123#1" departLane="best" type="veh_passenger" departSpeed="max"/>
    <trip id="veh121" depart="129.84" from="-662611626#2" to="-977804135#0" departLane="best" type="veh_passenger"/>
    <trip id="veh122" depart="130.92" from="-976894040#1" to="978455327#5" departLane="best" type="veh_passenger"/>
    <trip id="veh123" depart="131.99" from="978388684" to="978401451#1" departLane="best" type="veh_passenger" departSpeed="max"/>
    <trip id="veh124" depart="133.06" from="-978380691#2" to="-976844152#7" departLane="best" type="veh_passenger"/>
    <trip id="veh125" depart="134.13" from="977784091#0" to="976890887#4" departLane="best" type="veh_passenger"/>
    <trip id="veh126" depart="135.21" from="1362783020#2" to="978464392#1" departLane="best" type="veh_passenger"/>
    <trip id="veh127" depart="136.28" from="1362783028#8-AddedOffRampEdge" to="-1362782998#3" departLane="best" type="veh_passenger"/>
    <trip id="veh128" depart="137.35" from="976906005" to="-978455328#1" departLane="best" type="veh_passenger" departSpeed="max"/>
    <trip id="veh129" depart="138.43" from="-975942953" to="-975988526" departLane="best" type="veh_passenger" departSpeed="max"/>
    <trip id="veh130" depart="139.50" from="-975892207#5" to="662611626#4" departLane="best" type="veh_passenger"/>
    <trip id="veh131" depart="140.57" from="-976906010" to="975946423" departLane="best" type="veh_passenger" departSpeed="max"/>
    <trip id="veh132" depart="141.65" from="662611626#6" to="-977795231#0" departLane="best" type="veh_passenger"/>
    <trip id="veh133" depart="142.72" from="1362783023#1" to="-978401698#1" departLane="best" type="veh_passenger"/>
    <trip id="veh134" depart="143.79" from="-978458903" to="978405431" departLane="best" type="veh_passenger"/>
    <trip id="veh135" depart="144.87" from="977804135#0" to="-975873138#0" departLane="best" type="veh_passenger" departSpeed="max"/>
    <trip id="veh136" depart="145.94" from="-978401697#1" to="-978407665" departLane="best" type="veh_passenger"/>
    <trip id="veh137" depart="147.01" from="-1006680167#2" to="977795229" departLane="best" type="veh_passenger"/>
    <trip id="veh138" depart="148.08" from="1362783028#0" to="-978401697#3" departLane="best" type="veh_passenger" departSpeed="max"/>
    <trip id="veh139" depart="149.16" from="975900362#1" to="662611626#3" departLane="best" type="veh_passenger"/>
    <trip id="veh140" depart="150.23" from="-978401699#0" to="-1362782998#6" departLane="best" type="veh_passenger"/>
    <trip id="veh141" depart="151.30" from="-662611626#20" to="978401452#6" departLane="best" type="veh_passenger"/>
    <trip id="veh142" depart="152.38" from="978402497#0" to="662611626#27" departLane="best" type="veh_passenger"/>
    <trip id="veh143" depart="153.45" from="977795228" to="975914000#1" departLane="best" type="veh_passenger"/>
    <trip id="veh144" depart="154.52" from="-975988512#0" to="-976163605#2" departLane="best" type="veh_passenger"/>
    <trip id="veh145" depart="155.60" from="-977795228" to="978403690" departLane="best" type="veh_passenger"/>
    <trip id="veh146" depart="156.67" from="976846730#0" to="978388681#1" departLane="best" type="veh_passenger"/>
    <trip id="veh147" depart="157.74" from="978401698#1" to="-977795236" departLane="best" type="veh_passenger"/>
    <trip id="veh148" depart="158.82" from="-976890891" to="-975892208#3" departLane="best" type="veh_passenger" departSpeed="max"/>
    <trip id="veh149" depart="159.89" from="976829100#0" to="978401452#6" departLane="best" type="veh_passenger" departSpeed="max"/>
    <trip id="veh150" depart="160.96" from="-978395113#0" to="976163603#0" departLane="best" type="veh_passenger"/>
    <trip id="veh151" depart="162.04" from="-975992330#1" to="978455327#4" departLane="best" type="veh_passenger" departSpeed="max"/>
    <trip id="veh152" depart="163.11" from="978380691#5" to="978462813#1" departLane="best" type="veh_passenger"/>
    <trip id="veh153" depart="164.18" from="976890898#1" to="978401452#4" departLane="best" type="veh_passenger"/>
    <trip id="veh154" depart="165.25" from="-1362783021#20" to="977777415" departLane="best" type="veh_passenger"/>
    <trip id="veh155" depart="166.33" from="-977795234#2" to="978455327#5" departLane="best" type="veh_passenger" departSpeed="max"/>
    <trip id="veh156" depart="167.40" from="976890888#0" to="978393805" departLane="best" type="veh_passenger"/>
    <trip id="veh157" depart="168.47" from="976890898#1" to="-978401699#2" departLane="best" type="veh_passenger"/>
    <trip id="veh158" depart="169.55" from="976844152#0" to="-975900363#0" departLane="best" type="veh_passenger" departSpeed="max"/>
    <trip id="veh159" depart="170.62" from="978381533" to="978386282" departLane="best" type="veh_passenger"/>
    <trip id="veh160" depart="171.69" from="-976844152#6" to="977811092" departLane="best" type="veh_passenger"/>
    <trip id="veh161" depart="172.77" from="-978451748#3" to="-978455331#0" departLane="best" type="veh_passenger"/>
    <trip id="veh162" depart="173.84" from="976844163#4" to="-978380691#2" departLane="best" type="veh_passenger"/>
    <trip id="veh163" depart="174.91" from="-1362783021#2" to="-977777418" departLane="best" type="veh_passenger"/>
    <trip id="veh164" depart="175.99" from="-977795232#1" to="978393805" departLane="best" type="veh_passenger" departSpeed="max"/>
    <trip id="veh165" depart="177.06" from="978464390#2" to="-978443836" departLane="best" type="veh_passenger"/>
    <trip id="veh166" depart="178.13" from="1362783028#1" to="1362783006#1" departLane="best" type="veh_passenger"/>
    <trip id="veh167" depart="179.20" from="978599120" to="662611626#20" departLane="best" type="veh_passenger" departSpeed="max"/>
    <trip id="veh168" depart="180.28" from="978455330#4" to="-975988526" departLane="best" type="veh_passenger"/>
    <trip id="veh169" depart="181.35" from="978464394#2" to="-976890901#1" departLane="best" type="veh_passenger"/>
    <trip id="veh170" depart="182.42" from="978464390#0" to="-978401699#0" departLane="best" type="veh_passenger" departSpeed="max"/>
    <trip id="veh171" depart="183.50" from="-975892207#7" to="1362783017" departLane="best" type="veh_passenger"/>
    <trip id="veh172" depart="184.57" from="975873138#2" to="-978458901#0" departLane="best" type="veh_passenger"/>
    <trip id="veh173" depart="185.64" from="1362783014" to="343905253#18" departLane="best" type="veh_passenger"/>
    <trip id="veh174" depart="186.72" from="-978382085#1" to="975900362#1" departLane="best" type="veh_passenger" departSpeed="max"/>
    <trip id="veh175" depart="187.79" from="-976890892" to="976890890#5" departLane="best" type="veh_passenger" departSpeed="max"/>
    <trip id="veh176" depart="188.86" from="-1006680167#1" to="978451748#5" departLane="best" type="veh_passenger"/>
    <trip id="veh177" depart="189.94" from="1006680167#0" to="976890894" departLane="best" type="veh_passenger"/>
    <trip id="veh178" depart="191.01" from="975900362#2" to="976551123" departLane="best" type="veh_passenger"/>
    <trip id="veh179" depart="192.08" from="-978376417#2" to="-662611626#20" departLane="best" type="veh_passenger"/>
    <trip id="veh180" depart="193.15" from="-977795230#2" to="978382085#1" departLane="best" type="veh_passenger"/>
    <trip id="veh181" depart="194.23" from="662611626#7" to="-978455329#1" departLane="best" type="veh_passenger"/>
    <trip id="veh182" depart="195.30" from="-977795229" to="1362783006#3" departLane="best" type="veh_passenger" departSpeed="max"/>
    <trip id="veh183" depart="196.37" from="-978393805" to="-978455328#0" departLane="best" type="veh_passenger" departSpeed="max"/>
    <trip id="veh184" depart="197.45" from="-975914003#0" to="1362783007#5" departLane="best" type="veh_passenger"/>
    <trip id="veh185" depart="198.52" from="978455331#0" to="976551125" departLane="best" type="veh_passenger"/>
    <trip id="veh186" depart="199.59" from="-977784090#1" to="662611626#27" departLane="best" type="veh_passenger" departSpeed="max"/>
    <trip id="veh187" depart="200.67" from="-978402496#0" to="975900367" departLane="best" type="veh_passenger"/>
    <trip id="veh188" depart="201.74" from="-978405431" to="-977804135#0" departLane="best" type="veh_passenger" departSpeed="max"/>
    <trip id="veh189" depart="202.81" from="-978455329#1" to="978403691" departLane="best" type="veh_passenger"/>
    <trip id="veh190" depart="203.89" from="976846730#0" to="-976890890#1" departLane="best" type="veh_passenger"/>
    <trip id="veh191" depart="204.96" from="-662611626#27" to="343905253#20" departLane="best" type="veh_passenger" departSpeed="max"/>
    <trip id="veh192" depart="206.03" from="976906005" to="977784086" departLane="best" type="veh_passenger" departSpeed="max"/>
    <trip id="veh193" depart="207.10" from="276612292#6" to="-978376418" departLane="best" type="veh_passenger"/>
    <trip id="veh194" depart="208.18" from="-976544773#4" to="-1362783021#20" departLane="best" type="veh_passenger" departSpeed="max"/>
    <trip id="veh195" depart="209.25" from="-976890890#1" to="1362783028#8-AddedOffRampEdge" departLane="best" type="veh_passenger"/>
    <trip id="veh196" depart="210.32" from="977811092" to="-662611626#23" departLane="best" type="veh_passenger"/>
    <trip id="veh197" depart="211.40" from="-978401451#1" to="976163605#5" departLane="best" type="veh_passenger" departSpeed="max"/>
    <trip id="veh198" depart="212.47" from="-976544773#0" to="976870334" departLane="best" type="veh_passenger"/>
    <trip id="veh199" depart="213.54" from="-978462806#0" to="-978386282" departLane="best" type="veh_passenger"/>
    <trip id="veh200" depart="214.62" from="-975892207#5" to="1362783010#1-AddedOnRampEdge" departLane="best" type="veh_passenger"/>
    <trip id="veh201" depart="215.69" from="-976166460#1" to="978462806#1" departLane="best" type="veh_passenger" departSpeed="max"/>
    <trip id="veh202" depart="216.76" from="-978464387" to="-343905253#3" departLane="best" type="veh_passenger" departSpeed="max"/>
    <trip id="veh203" depart="217.84" from="-976890891" to="978382085#1" departLane="best" type="veh_passenger" departSpeed="max"/>
    <trip id="veh204" depart="218.91" from="-978451747#4" to="977798544" departLane="best" type="veh_passenger"/>
    <trip id="veh205" depart="219.98" from="276612292#0" to="978464392#1" departLane="best" type="veh_passenger"/>
    <trip id="veh206" depart="221.05" from="1362783010#1-AddedOffRampEdge" to="978458901#1" departLane="best" type="veh_passenger"/>
    <trip id="veh207" depart="222.13" from="978398436" to="975988512#2" departLane="best" type="veh_passenger"/>
    <trip id="veh208" depart="223.20" from="662611626#7" to="276612292#9" departLane="best" type="veh_passenger"/>
    <trip id="veh209" depart="224.27" from="977784088#0" to="662611626#27" departLane="best" type="veh_passenger"/>
    <trip id="veh210" depart="225.35" from="978401697#3" to="977777416#1" departLane="best" type="veh_passenger"/>
    <trip id="veh211" depart="226.42" from="-978455330#0" to="-978401452#2" departLane="best" type="veh_passenger"/>
    <trip id="veh212" depart="227.49" from="-976890890#5" to="976166460#1" departLane="best" type="veh_passenger"/>
    <trip id="veh213" depart="228.57" from="976163605#7" to="662611626#0" departLane="best" type="veh_passenger"/>
    <trip id="veh214" depart="229.64" from="1362783021#25" to="-978404634" departLane="best" type="veh_passenger"/>
    <trip id="veh215" depart="230.71" from="-662611626#22" to="-978451747#2" departLane="best" type="veh_passenger"/>
    <trip id="veh216" depart="231.79" from="-976906010" to="-978462808#0" departLane="best" type="veh_passenger" departSpeed="max"/>
    <trip id="veh217" depart="232.86" from="1006680167#2" to="-976538820#0" departLane="best" type="veh_passenger"/>
    <trip id="veh218" depart="233.93" from="662611626#22" to="-662611626#17" departLane="best" type="veh_passenger"/>
    <trip id="veh219" depart="235.00" from="-978396484" to="662611626#25" departLane="best" type="veh_passenger"/>
    <trip id="veh220" depart="236.08" from="-978401451#1" to="-977795233" departLane="best" type="veh_passenger" departSpeed="max"/>
    <trip id="veh221" depart="237.15" from="-978401452#6" to="978405431" departLane="best" type="veh_passenger" departSpeed="max"/>
    <trip id="veh222" depart="238.22" from="1362783007#0" to="976870334" departLane="best" type="veh_passenger" departSpeed="max"/>
    <trip id="veh223" depart="239.30" from="978376417#1" to="977784091#1" departLane="best" type="veh_passenger"/>
    <trip id="veh224" depart="240.37" from="-978381532#2" to="-1362782998#10" departLane="best" type="veh_passenger" departSpeed="max"/>
    <trip id="veh225" depart="241.44" from="-977801763" to="977784088#0" departLane="best" type="veh_passenger" departSpeed="max"/>
    <trip id="veh226" depart="242.52" from="978366613#0" to="978458907" departLane="best" type="veh_passenger"/>
    <trip id="veh227" depart="243.59" from="-978401452#4" to="977777418" departLane="best" type="veh_passenger"/>
    <trip id="veh228" depart="244.66" from="1323518792#2" to="975946423" departLane="best" type="veh_passenger"/>
    <trip id="veh229" depart="245.74" from="-976844152#3" to="-978366613#3" departLane="best" type="veh_passenger"/>
    <trip id="veh230" depart="246.81" from="-977798541" to="976829100#2" departLane="best" type="veh_passenger"/>
    <trip id="veh231" depart="247.88" from="-978455327#4" to="-976163605#2" departLane="best" type="veh_passenger"/>
    <trip id="veh232" depart="248.95" from="1362783021#19" to="-1362783021#23" departLane="best" type="veh_passenger"/>
    <trip id="veh233" depart="250.03" from="-978385193#1" to="975873138#2" departLane="best" type="veh_passenger" departSpeed="max"/>
    <trip id="veh234" depart="251.10" from="-1362783021#24" to="976166461#3" departLane="best" type="veh_passenger"/>
    <trip id="veh235" depart="252.17" from="-975942953" to="1362783023#1" departLane="best" type="veh_passenger" departSpeed="max"/>
    <trip id="veh236" depart="253.25" from="-343905253#18" to="1362782998#11" departLane="best" type="veh_passenger"/>