<?xml version="1.0" encoding="UTF-8"?>

<!-- generated on 2026-04-14 14:12:44.264062 by Eclipse SUMO randomTrips.py v1_26_0+0000-fa7df22d7f1
<configuration>
    <net-file value="osm.net.xml.gz"/>
    <output-trip-file value="osm.passenger.trips.xml"/>
    <prefix value="veh"/>
    <trip-attributes value="departLane=&quot;best&quot;"/>
    <fringe-start-attributes value="departSpeed=&quot;max&quot;"/>
    <vehicle-class value="passenger"/>
    <lanes value="True"/>
    <fringe-factor value="5"/>
    <allow-fringe.min-length value="1000.0"/>
    <edge-permission value="passenger"/>
    <via-edge-types value="highway.motorway,highway.motorway_link,highway.trunk_link,highway.primary_link,highway.secondary_link,highway.tertiary_link"/>
    <min-distance value="300.0"/>
    <min-distance.fringe value="10.0"/>
    <remove-loops value="True"/>
    <end value="4500.0"/>
    <insertion-density value="1.6"/>
</configuration>
-->

<routes xmlns:xsi="http://www.w3.org/2001/XMLSchema-instance" xsi:noNamespaceSchemaLocation="http://sumo.dlr.de/xsd/routes_file.xsd">
    <vType id="veh_passenger" vClass="passenger"/>
    <trip id="veh0" depart="0.00" from="1311477674" to="-1084156505#0" departLane="best" type="veh_passenger"/>
    <trip id="veh1" depart="2.91" from="-41047981" to="-161470060#0" departLane="best" type="veh_passenger"/>
    <trip id="veh2" depart="5.83" from="202762440" to="1469077776#4" departLane="best" type="veh_passenger"/>
    <trip id="veh3" depart="8.74" from="544627913#1" to="-1225836701#2" departLane="best" type="veh_passenger"/>
    <trip id="veh4" depart="11.65" from="-739650752#5" to="-1084156505#10" departLane="best" type="veh_passenger" departSpeed="max"/>
    <trip id="veh5" depart="14.56" from="-1472041277" to="1084156505#8" departLane="best" type="veh_passenger" departSpeed="max"/>
    <trip id="veh6" depart="17.48" from="-1084156505#2" to="-1469077800#1" departLane="best" type="veh_passenger"/>
    <trip id="veh7" depart="20.39" from="1361700372#0" to="1206337919" departLane="best" type="veh_passenger"/>
    <trip id="veh8" depart="23.30" from="-1472041277" to="1225836705#2" departLane="best" type="veh_passenger" departSpeed="max"/>
    <trip id="veh9" depart="26.22" from="544627870#5" to="-1002086883" departLane="best" type="veh_passenger"/>
    <trip id="veh10" depart="29.13" from="544627870#4" to="1469077800#0" departLane="best" type="veh_passenger"/>
    <trip id="veh11" depart="32.04" from="-544627883#2" to="-1361700372#2" departLane="best" type="veh_passenger"/>
    <trip id="veh12" depart="34.95" from="739767743" to="-544627886#1" departLane="best" type="veh_passenger" departSpeed="max"/>
    <trip id="veh13" depart="37.87" from="-1225836700" to="-1225836704" departLane="best" type="veh_passenger"/>
    <trip id="veh14" depart="40.78" from="544627870#4" to="217847391#1" departLane="best" type="veh_passenger"/>
    <trip id="veh15" depart="43.69" from="1084156505#3" to="832891258#0" departLane="best" type="veh_passenger"/>
    <trip id="veh16" depart="46.61" from="-544627899#2" to="1218774263" departLane="best" type="veh_passenger" departSpeed="max"/>
    <trip id="veh17" depart="49.52" from="544627879#0" to="1253815128#1" departLane="best" type="veh_passenger"/>
    <trip id="veh18" depart="52.43" from="544627891#0" to="1225836702" departLane="best" type="veh_passenger"/>
    <trip id="veh19" depart="55.34" from="1472041279" to="-1084156505#7" departLane="best" type="veh_passenger" departSpeed="max"/>
    <trip id="veh20" depart="58.26" from="-161470059#0" to="-544627818" departLane="best" type="veh_passenger"/>
    <trip id="veh21" depart="61.17" from="-1218774263" to="-161470060#0" departLane="best" type="veh_passenger" departSpeed="max"/>
    <trip id="veh22" depart="64.08" from="-1225836701#2" to="-50677938#1" departLane="best" type="veh_passenger"/>
    <trip id="veh23" depart="67.00" from="1253815776" to="-544627897#2" departLane="best" type="veh_passenger"/>
    <trip id="veh24" depart="69.91" from="-544627897#2" to="-1472041280#0" departLane="best" type="veh_passenger"/>
    <trip id="veh25" depart="72.82" from="-272564634#1" to="739653946#1" departLane="best" type="veh_passenger"/>
    <trip id="veh26" depart="75.73" from="-1361700368#0" to="217847391#1" departLane="best" type="veh_passenger"/>
    <trip id="veh27" depart="78.65" from="-1253815776" to="-544627913#0" departLane="best" type="veh_passenger" departSpeed="max"/>
    <trip id="veh28" depart="81.56" from="832891265#1" to="1361700371" departLane="best" type="veh_passenger"/>
    <trip id="veh29" depart="84.47" from="113784607#0" to="1469077785#1" departLane="best" type="veh_passenger"/>
    <trip id="veh30" depart="87.39" from="544627883#2" to="544627811#1" departLane="best" type="veh_passenger"/>
    <trip id="veh31" depart="90.30" from="-161470059#0" to="-1084156505#2" departLane="best" type="veh_passenger"/>
    <trip id="veh32" depart="93.21" from="-544627870#4" to="-41047981" departLane="best" type="veh_passenger"/>
    <trip id="veh33" depart="96.12" from="-1469077797#1" to="739653946#1" departLane="best" type="veh_passenger"/>
    <trip id="veh34" depart="99.04" from="544627899#0" to="-544627875" departLane="best" type="veh_passenger"/>
    <trip id="veh35" depart="101.95" from="1361700372#1" to="-739650752#1" departLane="best" type="veh_passenger"/>
    <trip id="veh36" depart="104.86" from="739650748" to="-989200440#0" departLane="best" type="veh_passenger" departSpeed="max"/>
    <trip id="veh37" depart="107.78" from="-272564634#0" to="-217847391#3" departLane="best" type="veh_passenger"/>
    <trip id="veh38" depart="110.69" from="113784607#3" to="-41047981" departLane="best" type="veh_passenger"/>
    <trip id="veh39" depart="113.60" from="1225836700" to="739650718#1" departLane="best" type="veh_passenger"/>
    <trip id="veh40" depart="116.51" from="-739650752#0" to="-161470060#0" departLane="best" type="veh_passenger"/>
    <trip id="veh41" depart="119.43" from="905377121#1" to="1084156505#9" departLane="best" type="veh_passenger"/>
    <trip id="veh42" depart="122.34" from="-1225836699" to="-1084156505#8" departLane="best" type="veh_passenger"/>
    <trip id="veh43" depart="125.25" from="-1225836704" to="1253815776" departLane="best" type="veh_passenger"/>
    <trip id="veh44" depart="128.17" from="544627811#1" to="-764430994" departLane="best" type="veh_passenger"/>
    <trip id="veh45" depart="131.08" from="-1206337916#0" to="-544627913#1" departLane="best" type="veh_passenger"/>
    <trip id="veh46" depart="133.99" from="881660914#2" to="1206337915" departLane="best" type="veh_passenger"/>
    <trip id="veh47" depart="136.90" from="832891255" to="544627897#2" departLane="best" type="veh_passenger"/>
    <trip id="veh48" depart="139.82" from="-1084156504#1" to="161470060#1" departLane="best" type="veh_passenger"/>
    <trip id="veh49" depart="142.73" from="1469077784#1" to="1206337918" departLane="best" type="veh_passenger"/>
    <trip id="veh50" depart="145.64" from="-272564634#1" to="1361700371" departLane="best" type="veh_passenger"/>
    <trip id="veh51" depart="148.56" from="-1225836704" to="-832891263" departLane="best" type="veh_passenger"/>
    <trip id="veh52" depart="151.47" from="-832891258#0" to="764430992#1" departLane="best" type="veh_passenger"/>
    <trip id="veh53" depart="154.38" from="544627899#0" to="-41047981" departLane="best" type="veh_passenger"/>
    <trip id="veh54" depart="157.29" from="1050305617" to="-1469077781" departLane="best" type="veh_passenger" departSpeed="max"/>
    <trip id="veh55" depart="160.21" from="739650748" to="544627899#2" departLane="best" type="veh_passenger" departSpeed="max"/>
    <trip id="veh56" depart="163.12" from="-544627811#1" to="1361700368#1" departLane="best" type="veh_passenger" departSpeed="max"/>
    <trip id="veh57" depart="166.03" from="1225836705#1" to="-1361700372#1" departLane="best" type="veh_passenger"/>
    <trip id="veh58" depart="168.95" from="286385474" to="1206337919" departLane="best" type="veh_passenger"/>
    <trip id="veh59" depart="171.86" from="41048027" to="1206337916#0" departLane="best" type="veh_passenger" departSpeed="max"/>
    <trip id="veh60" depart="174.77" from="-1002086883" to="-544627880" departLane="best" type="veh_passenger"/>
    <trip id="veh61" depart="177.68" from="-1084156505#0" to="739650752#5" departLane="best" type="veh_passenger"/>
    <trip id="veh62" depart="180.60" from="544627899#1" to="544627886#0" departLane="best" type="veh_passenger"/>
    <trip id="veh63" depart="183.51" from="-544627870#0" to="-113784607#4" departLane="best" type="veh_passenger"/>
    <trip id="veh64" depart="186.42" from="544627899#1" to="739653946#1" departLane="best" type="veh_passenger"/>
    <trip id="veh65" depart="189.34" from="-1218774263" to="1084156505#10" departLane="best" type="veh_passenger" departSpeed="max"/>
    <trip id="veh66" depart="192.25" from="-1206337919" to="286385461" departLane="best" type="veh_passenger" departSpeed="max"/>
    <trip id="veh67" depart="195.16" from="-905377121#0" to="1218774263" departLane="best" type="veh_passenger"/>
    <trip id="veh68" depart="198.07" from="-272564634#0" to="544627903#0" departLane="best" type="veh_passenger"/>
    <trip id="veh69" depart="200.99" from="-739650752#5" to="-1472041280#1" departLane="best" type="veh_passenger" departSpeed="max"/>
    <trip id="veh70" depart="203.90" from="1084156505#4" to="217847391#1" departLane="best" type="veh_passenger"/>
    <trip id="veh71" depart="206.81" from="-1469077785#2" to="-544627873" departLane="best" type="veh_passenger"/>
    <trip id="veh72" depart="209.73" from="881660914#1" to="1361700372#2" departLane="best" type="veh_passenger"/>
    <trip id="veh73" depart="212.64" from="-764430993#0" to="113784607#3" departLane="best" type="veh_passenger"/>
    <trip id="veh74" depart="215.55" from="-1225836705#2" to="-161470060#0" departLane="best" type="veh_passenger"/>
    <trip id="veh75" depart="218.46" from="-544627883#0" to="1225836705#2" departLane="best" type="veh_passenger"/>
    <trip id="veh76" depart="221.38" from="-161470059#1" to="-161470060#0" departLane="best" type="veh_passenger"/>
    <trip id="veh77" depart="224.29" from="-1206337919" to="1311477674" departLane="best" type="veh_passenger" departSpeed="max"/>
    <trip id="veh78" depart="227.20" from="-161470059#0" to="739650718#1" departLane="best" type="veh_passenger"/>
    <trip id="veh79" depart="230.12" from="544627887#2" to="-1218774263" departLane="best" type="veh_passenger"/>
    <trip id="veh80" depart="233.03" from="-217847391#0" to="1469077766" departLane="best" type="veh_passenger"/>
    <trip id="veh81" depart="235.94" from="-1469077800#1" to="-1253815135#0" departLane="best" type="veh_passenger"/>
    <trip id="veh82" depart="238.85" from="739650752#3" to="1225836701#3" departLane="best" type="veh_passenger"/>
    <trip id="veh83" depart="241.77" from="-881660914#1" to="544627811#1" departLane="best" type="veh_passenger"/>
    <trip id="veh84" depart="244.68" from="544627870#4" to="-1469077793" departLane="best" type="veh_passenger"/>
    <trip id="veh85" depart="247.59" from="-1225836701#1" to="-832891262#1" departLane="best" type="veh_passenger"/>
    <trip id="veh86" depart="250.51" from="-739650752#5" to="1084156502#1" departLane="best" type="veh_passenger" departSpeed="max"/>
    <trip id="veh87" depart="253.42" from="161470060#0" to="1469077776#1" departLane="best" type="veh_passenger" departSpeed="max"/>
    <trip id="veh88" depart="256.33" from="832891264#1" to="-1225836705#0" departLane="best" type="veh_passenger"/>
    <trip id="veh89" depart="259.24" from="-739650752#1" to="-544627886#2" departLane="best" type="veh_passenger"/>
    <trip id="veh90" depart="262.16" from="544627891#0" to="-23220996" departLane="best" type="veh_passenger"/>
    <trip id="veh91" depart="265.07" from="-1469077776#2" to="-905377121#0" departLane="best" type="veh_passenger"/>
    <trip id="veh92" depart="267.98" from="-739650752#5" to="-50677938#1" departLane="best" type="veh_passenger" departSpeed="max"/>
    <trip id="veh93" depart="270.90" from="-217847391#3" to="739650752#5" departLane="best" type="veh_passenger" departSpeed="max"/>
    <trip id="veh94" depart="273.81" from="-832891255" to="544627899#0" departLane="best" type="veh_passenger"/>
    <trip id="veh95" depart="276.72" from="989200440#1" to="544627886#3" departLane="best" type="veh_passenger"/>
    <trip id="veh96" depart="279.63" from="764430994" to="739650752#5" departLane="best" type="veh_passenger"/>
    <trip id="veh97" depart="282.55" from="544627886#2" to="-1469077773" departLane="best" type="veh_passenger"/>
    <trip id="veh98" depart="285.46" from="1002086883" to="-161470059#0" departLane="best" type="veh_passenger" departSpeed="max"/>
    <trip id="veh99" depart="288.37" from="-739650752#0" to="-113784607#4" departLane="best" type="veh_passenger"/>
    <trip id="veh100" depart="291.29" from="-544627899#2" to="832891264#1" departLane="best" type="veh_passenger" departSpeed="max"/>
    <trip id="veh101" depart="294.20" from="-272564634#0" to="544627811#1" departLane="best" type="veh_passenger"/>
    <trip id="veh102" depart="297.11" from="739767743" to="881660914#2" departLane="best" type="veh_passenger" departSpeed="max"/>
    <trip id="veh103" depart="300.02" from="1084156506" to="161470060#1" departLane="best" type="veh_passenger"/>
    <trip id="veh104" depart="302.94" from="-1253815135#0" to="-544627870#2" departLane="best" type="veh_passenger"/>
    <trip id="veh105" depart="305.85" from="764430994" to="1225836704" departLane="best" type="veh_passenger"/>
    <trip id="veh106" depart="308.76" from="1084156505#5" to="217847391#3" departLane="best" type="veh_passenger"/>
    <trip id="veh107" depart="311.68" from="-1206337915" to="1225836705#1" departLane="best" type="veh_passenger" departSpeed="max"/>
    <trip id="veh108" depart="314.59" from="1050305617" to="544627892#1" departLane="best" type="veh_passenger" departSpeed="max"/>
    <trip id="veh109" depart="317.50" from="-1253815135#1" to="764430994" departLane="best" type="veh_passenger"/>
    <trip id="veh110" depart="320.41" from="-1218774263" to="-1469077785#2" departLane="best" type="veh_passenger" departSpeed="max"/>
    <trip id="veh111" depart="323.33" from="1225836701#3" to="1469077776#2" departLane="best" type="veh_passenger"/>
    <trip id="veh112" depart="326.24" from="-161470060#0" to="-1247592738" departLane="best" type="veh_passenger"/>
    <trip id="veh113" depart="329.15" from="544627913#0" to="-217847391#3" departLane="best" type="veh_passenger" departSpeed="max"/>
    <trip id="veh114" depart="332.07" from="1225836701#3" to="1253815135#0" departLane="best" type="veh_passenger"/>
    <trip id="veh115" depart="334.98" from="-739650752#5" to="1225836705#0" departLane="best" type="veh_passenger" departSpeed="max"/>
    <trip id="veh116" depart="337.89" from="1084156504#2" to="739653946#1" departLane="best" type="veh_passenger"/>
    <trip id="veh117" depart="340.80" from="-1469077790" to="161470060#0" departLane="best" type="veh_passenger"/>
    <trip id="veh118" depart="343.72" from="-217847391#0" to="-739650752#1" departLane="best" type="veh_passenger"/>
    <trip id="veh119" depart="346.63" from="1469077776#1" to="-544627870#4" departLane="best" type="veh_passenger"/>
    <trip id="veh120" depart="349.54" from="-544627870#4" to="23220996" departLane="best" type="veh_passenger"/>
    <trip id="veh121" depart="352.46" from="-1206337919" to="-989200440#0" departLane="best" type="veh_passenger" departSpeed="max"/>
    <trip id="veh122" depart="355.37" from="989200440#1" to="881660914#2" departLane="best" type="veh_passenger"/>
    <trip id="veh123" depart="358.28" from="-1206337919" to="-161470059#0" departLane="best" type="veh_passenger" departSpeed="max"/>
    <trip id="veh124" depart="361.19" from="-272564634#0" to="739650752#5" departLane="best" type="veh_passenger"/>
    <trip id="veh125" depart="364.11" from="544627903#1" to="544627913#1" departLane="best" type="veh_passenger"/>
    <trip id="veh126" depart="367.02" from="544627880" to="1472041276" departLane="best" type="veh_passenger"/>
    <trip id="veh127" depart="369.93" from="1225836705#2" to="832891264#2" departLane="best" type="veh_passenger"/>
    <trip id="veh128" depart="372.85" from="1361700372#1" to="-1002086883" departLane="best" type="veh_passenger"/>
    <trip id="veh129" depart="375.76" from="544627870#7" to="-544627870#2" departLane="best" type="veh_passenger"/>
    <trip id="veh130" depart="378.67" from="1469077773" to="739653946#1" departLane="best" type="veh_passenger" departSpeed="max"/>
    <trip id="veh131" depart="381.58" from="-1225836702" to="1218774263" departLane="best" type="veh_passenger"/>
    <trip id="veh132" depart="384.50" from="161470060#0" to="-1472041280#0" departLane="best" type="veh_passenger" departSpeed="max"/>
    <trip id="veh133" depart="387.41" from="1253815135#1" to="-41047981" departLane="best" type="veh_passenger"/>
    <trip id="veh134" depart="390.32" from="1002086883" to="739650718#1" departLane="best" type="veh_passenger" departSpeed="max"/>
    <trip id="veh135" depart="393.24" from="544627886#0" to="-1225836702" departLane="best" type="veh_passenger"/>
    <trip id="veh136" depart="396.15" from="-739650752#5" to="-50677938#0" departLane="best" type="veh_passenger" departSpeed="max"/>
    <trip id="veh137" depart="399.06" from="-1084156502#0" to="544627810" departLane="best" type="veh_passenger"/>
    <trip id="veh138" depart="401.97" from="1311477674" to="-41047981" departLane="best" type="veh_passenger"/>
    <trip id="veh139" depart="404.89" from="217847391#1" to="1218774263" departLane="best" type="veh_passenger"/>
    <trip id="veh140" depart="407.80" from="-739650752#5" to="-1084156502#0" departLane="best" type="veh_passenger" departSpeed="max"/>
    <trip id="veh141" depart="410.71" from="-1206337919" to="544627930" departLane="best" type="veh_passenger" departSpeed="max"/>
    <trip id="veh142" depart="413.63" from="544627923" to="1212677532" departLane="best" type="veh_passenger" departSpeed="max"/>
    <trip id="veh143" depart="416.54" from="544627881#0" to="1225836705#0" departLane="best" type="veh_passenger"/>
    <trip id="veh144" depart="419.45" from="-544627870#1" to="739650718#1" departLane="best" type="veh_passenger"/>
    <trip id="veh145" depart="422.36" from="544627869" to="544627897#2" departLane="best" type="veh_passenger"/>
    <trip id="veh146" depart="425.28" from="544627919" to="-1472041280#0" departLane="best" type="veh_passenger" departSpeed="max"/>
    <trip id="veh147" depart="428.19" from="-217847391#3" to="-1225836705#1" departLane="best" type="veh_passenger" departSpeed="max"/>
    <trip id="veh148" depart="431.10" from="50677938#1" to="544627930" departLane="best" type="veh_passenger"/>
    <trip id="veh149" depart="434.02" from="-739650752#2" to="1253815135#1" departLane="best" type="veh_passenger"/>
    <trip id="veh150" depart="436.93" from="-1253815128#1" to="739650752#5" departLane="best" type="veh_passenger" departSpeed="max"/>
    <trip id="veh151" depart="439.84" from="544627891#2" to="832891262#0" departLane="best" type="veh_passenger"/>
    <trip id="veh152" depart="442.75" from="544627870#5" to="544627923" departLane="best" type="veh_passenger"/>
    <trip id="veh153" depart="445.67" from="-1084156505#2" to="217847391#3" departLane="best" type="veh_passenger"/>
    <trip id="veh154" depart="448.58" from="-544627881#0" to="739650752#5" departLane="best" type="veh_passenger"/>
    <trip id="veh155" depart="451.49" from="544627870#2" to="544627899#1" departLane="best" type="veh_passenger"/>
    <trip id="veh156" depart="454.41" from="544627870#5" to="-41047981" departLane="best" type="veh_passenger"/>
    <trip id="veh157" depart="457.32" from="544627810" to="-1225836706" departLane="best" type="veh_passenger" departSpeed="max"/>
    <trip id="veh158" depart="460.23" from="544627897#0" to="544627897#1" departLane="best" type="veh_passenger"/>
    <trip id="veh159" depart="463.14" from="-1472041277" to="544627879#0" departLane="best" type="veh_passenger" departSpeed="max"/>
    <trip id="veh160" depart="466.06" from="-832891262#2" to="-544627870#5" departLane="best" type="veh_passenger"/>
    <trip id="veh161" depart="468.97" from="544627818" to="-161470060#0" departLane="best" type="veh_passenger"/>
    <trip id="veh162" depart="471.88" from="-1084156505#10" to="-1469077797#0" departLane="best" type="veh_passenger"/>
    <trip id="veh163" depart="474.80" from="-544627879#0" to="544627899#1" departLane="best" type="veh_passenger"/>
    <trip id="veh164" depart="477.71" from="764430993#1" to="-50677938#1" departLane="best" type="veh_passenger"/>
    <trip id="veh165" depart="480.62" from="1361700368#0" to="-739650752#2" departLane="best" type="veh_passenger"/>
    <trip id="veh166" depart="483.53" from="832891263" to="1206337918" departLane="best" type="veh_passenger"/>
    <trip id="veh167" depart="486.45" from="739650752#4" to="-1247592738" departLane="best" type="veh_passenger"/>
    <trip id="veh168" depart="489.36" from="832891255" to="-1469077779#0" departLane="best" type="veh_passenger"/>
    <trip id="veh169" depart="492.27" from="764430992#1" to="-41047981" departLane="best" type="veh_passenger"/>
    <trip id="veh170" depart="495.19" from="-1225836702" to="-832891263" departLane="best" type="veh_passenger"/>
    <trip id="veh171" depart="498.10" from="161470060#0" to="-544627875" departLane="best" type="veh_passenger" departSpeed="max"/>
    <trip id="veh172" depart="501.01" from="1225836705#1" to="1084156506" departLane="best" type="veh_passenger"/>
    <trip id="veh173" depart="503.92" from="-544627903#1" to="1225836702" departLane="best" type="veh_passenger"/>
    <trip id="veh174" depart="506.84" from="-217847391#3" to="1472041276" departLane="best" type="veh_passenger" departSpeed="max"/>
    <trip id="veh175" depart="509.75" from="-1084156502#0" to="739650752#5" departLane="best" type="veh_passenger"/>
    <trip id="veh176" depart="512.66" from="1084156505#4" to="161470060#1" departLane="best" type="veh_passenger"/>
    <trip id="veh177" depart="515.58" from="217847391#1" to="1469077775" departLane="best" type="veh_passenger"/>
    <trip id="veh178" depart="518.49" from="-544627896#0" to="-1212677532" departLane="best" type="veh_passenger"/>
    <trip id="veh179" depart="521.40" from="1469077773" to="-544627883#0" departLane="best" type="veh_passenger" departSpeed="max"/>
    <trip id="veh180" depart="524.31" from="-544627870#2" to="544627891#0" departLane="best" type="veh_passenger"/>
    <trip id="veh181" depart="527.23" from="161470060#0" to="-544627870#4" departLane="best" type="veh_passenger" departSpeed="max"/>
    <trip id="veh182" depart="530.14" from="-544627870#1" to="-739650752#5" departLane="best" type="veh_passenger"/>
    <trip id="veh183" depart="533.05" from="-739650752#1" to="-544627870#1" departLane="best" type="veh_passenger"/>
    <trip id="veh184" depart="535.97" from="-1229238572" to="-764430993#1" departLane="best" type="veh_passenger"/>
    <trip id="veh185" depart="538.88" from="739650752#5" to="1469077776#4" departLane="best" type="veh_passenger"/>
    <trip id="veh186" depart="541.79" from="544627923" to="1253815128#1" departLane="best" type="veh_passenger" departSpeed="max"/>
    <trip id="veh187" depart="544.70" from="-544627811#1" to="1218774263" departLane="best" type="veh_passenger" departSpeed="max"/>
    <trip id="veh188" depart="547.62" from="-1002086883" to="-544627811#1" departLane="best" type="veh_passenger"/>
    <trip id="veh189" depart="550.53" from="-739650752#5" to="1225836704" departLane="best" type="veh_passenger" departSpeed="max"/>
    <trip id="veh190" depart="553.44" from="1361700372#1" to="1084156502#0" departLane="best" type="veh_passenger"/>
    <trip id="veh191" depart="556.36" from="-832891255" to="-161470059#0" departLane="best" type="veh_passenger"/>
    <trip id="veh192" depart="559.27" from="-881660914#1" to="739650718#1" departLane="best" type="veh_passenger"/>
    <trip id="veh193" depart="562.18" from="544627869" to="-1469077775" departLane="best" type="veh_passenger"/>
    <trip id="veh194" depart="565.09" from="-1218774263" to="113784607#2" departLane="best" type="veh_passenger" departSpeed="max"/>
    <trip id="veh195" depart="568.01" from="1253815135#0" to="-544627886#0" departLane="best" type="veh_passenger" departSpeed="max"/>
    <trip id="veh196" depart="570.92" from="544627871" to="23220996" departLane="best" type="veh_passenger"/>
    <trip id="veh197" depart="573.83" from="1469077776#1" to="-161470060#0" departLane="best" type="veh_passenger"/>
    <trip id="veh198" depart="576.74" from="-1469077785#0" to="-1084156505#0" departLane="best" type="veh_passenger"/>
    <trip id="veh199" depart="579.66" from="-217847391#2" to="1084156504#0" departLane="best" type="veh_passenger"/>
    <trip id="veh200" depart="582.57" from="544627886#2" to="-1225836698" departLane="best" type="veh_passenger"/>
    <trip id="veh201" depart="585.48" from="-739650752#4" to="1253815776" departLane="best" type="veh_passenger"/>
    <trip id="veh202" depart="588.40" from="-1469077779#0" to="1469077797#1" departLane="best" type="veh_passenger"/>
    <trip id="veh203" depart="591.31" from="1050305617" to="-217847391#2" departLane="best" type="veh_passenger" departSpeed="max"/>
    <trip id="veh204" depart="594.22" from="1361700372#2" to="-1002086883" departLane="best" type="veh_passenger"/>
    <trip id="veh205" depart="597.13" from="23220996" to="50677938#1" departLane="best" type="veh_passenger"/>
    <trip id="veh206" depart="600.05" from="-1225836702" to="-832891257" departLane="best" type="veh_passenger"/>
    <trip id="veh207" depart="602.96" from="1084156504#0" to="-1084156505#9" departLane="best" type="veh_passenger"/>
    <trip id="veh208" depart="605.87" from="-217847391#3" to="544627891#0" departLane="best" type="veh_passenger" departSpeed="max"/>
    <trip id="veh209" depart="608.79" from="-832891262#0" to="544627870#4" departLane="best" type="veh_passenger"/>
    <trip id="veh210" depart="611.70" from="1469077773" to="832891265#0" departLane="best" type="veh_passenger" departSpeed="max"/>
    <trip id="veh211" depart="614.61" from="1225836701#3" to="739653946#1" departLane="best" type="veh_passenger"/>
    <trip id="veh212" depart="617.52" from="544627913#0" to="1253815128#1" departLane="best" type="veh_passenger" departSpeed="max"/>
    <trip id="veh213" depart="620.44" from="161470060#0" to="1084156505#8" departLane="best" type="veh_passenger" departSpeed="max"/>
    <trip id="veh214" depart="623.35" from="544627879#0" to="1218774263" departLane="best" type="veh_passenger"/>
    <trip id="veh215" depart="626.26" from="544627919" to="217847391#3" departLane="best" type="veh_passenger" departSpeed="max"/>
    <trip id="veh216" depart="629.18" from="-881660914#2" to="-41047981" departLane="best" type="veh_passenger"/>
    <trip id="veh217" depart="632.09" from="-217847391#3" to="1361700368#1" departLane="best" type="veh_passenger" departSpeed="max"/>
    <trip id="veh218" depart="635.00" from="41048027" to="1206337914" departLane="best" type="veh_passenger" departSpeed="max"/>
    <trip id="veh219" depart="637.91" from="1253815135#0" to="-50677938#0" departLane="best" type="veh_passenger" departSpeed="max"/>
    <trip id="veh220" depart="640.83" from="-1212677532" to="-544627811#1" departLane="best" type="veh_passenger"/>
    <trip id="veh221" depart="643.74" from="-286385474" to="-544627875" departLane="best" type="veh_passenger"/>
    <trip id="veh222" depart="646.65" from="1084156505#4" to="-1253815135#0" departLane="best" type="veh_passenger"/>
    <trip id="veh223" depart="649.57" from="-161470059#1" to="1469077797#0" departLane="best" type="veh_passenger"/>
    <trip id="veh224" depart="652.48" from="1472041279" to="-1206337916#1" departLane="best" type="veh_passenger" departSpeed="max"/>
    <trip id="veh225" depart="655.39" from="-739650752#2" to="1206337919" departLane="best" type="veh_passenger"/>
    <trip id="veh226" depart="658.30" from="-739650752#5" to="-1472041280#0" departLane="best" type="veh_passenger" departSpeed="max"/>
    <trip id="veh227" depart="661.22" from="-739650752#5" to="739650718#1" departLane="best" type="veh_passenger" departSpeed="max"/>
    <trip id="veh228" depart="664.13" from="1225836700" to="1469077797#1" departLane="best" type="veh_passenger"/>
    <trip id="veh229" depart="667.04" from="544627887#1" to="41048027" departLane="best" type="veh_passenger"/>
    <trip id="veh230" depart="669.96" from="-544627899#2" to="-1002086883" departLane="best" type="veh_passenger" departSpeed="max"/>
    <trip id="veh231" depart="672.87" from="-544627887#0" to="272564634#0" departLane="best" type="veh_passenger"/>
    <trip id="veh232" depart="675.78" from="544627886#5" to="764430992#0" departLane="best" type="veh_passenger"/>
    <trip id="veh233" depart="678.69" from="-739650752#5" to="217847391#3" departLane="best" type="veh_passenger" departSpeed="max"/>
    <trip id="veh234" depart="681.61" from="-1472041277" to="-161470060#0" departLane="best" type="veh_passenger" departSpeed="max"/>
    <trip id="veh235" depart="684.52" from="-764430992#1" to="-1084156505#10" departLane="best" type="veh_passenger"/>
    <trip id="veh236" depart="687.43" from="-544627881#2" to="1469077779#0" departLane="best" type="veh_passenger"/>
    <trip id="veh237" depart="690.35" from="-739650752#1" to="-1469077773" departLane="best" type="veh_passenger"/>
    <trip id="veh238" depart="693.26" from="-544627930" to="1225836700" departLane="best" type="veh_passenger" departSpeed="max"/>
    <trip id="veh239" depart="696.17" from="-1084156505#2" to="1361700372#0" departLane="best" type="veh_passenger"/>