<?xml version="1.0" encoding="UTF-8"?>

<!-- generated on 2026-04-14 14:12:45.116727 by Eclipse SUMO randomTrips.py v1_26_0+0000-fa7df22d7f1
<configuration>
    <net-file value="osm.net.xml.gz"/>
    <output-trip-file value="osm.passenger.trips.xml"/>
    <prefix value="veh"/>
    <trip-attributes value="departLane=&quot;best&quot;"/>
    <fringe-start-attributes value="departSpeed=&quot;max&quot;"/>
    <vehicle-class value="passenger"/>
    <lanes value="True"/>
    <fringe-factor value="5"/>
    <allow-fringe.min-length value="1000.0"/>
    <edge-permission value="passenger"/>
    <via-edge-types value="highway.motorway,highway.motorway_link,highway.trunk_link,highway.primary_link,highway.secondary_link,highway.tertiary_link"/>
    <min-distance value="300.0"/>
    <min-distance.fringe value="10.0"/>
    <remove-loops value="True"/>
    <end value="4500.0"/>
    <insertion-density value="1.6"/>
</configuration>
-->

<!-- generated on 2026-04-14T14:12:44.705198+05:30 by Eclipse SUMO duarouter 1.26.0
<duarouterConfiguration xmlns:xsi="http://www.w3.org/2001/XMLSchema-instance" xsi:noNamespaceSchemaLocation="http://sumo.dlr.de/xsd/duarouterConfiguration.xsd">

    <input>
        <net-file value="osm.net.xml.gz"/>
        <route-files value="osm.passenger.trips.xml"/>
    </input>

    <output>
        <output-file value="routes.rou.xml"/>
        <alternatives-output value="NUL"/>
    </output>

    <processing>
        <remove-loops value="true"/>
    </processing>

    <time>
        <begin value="0.0"/>
        <end value="4500.0"/>
    </time>

    <report>
        <no-warnings value="true"/>
        <ignore-errors value="true"/>
        <no-step-log value="true"/>
    </report>

</duarouterConfiguration>
-->

<routes xmlns:xsi="http://www.w3.org/2001/XMLSchema-instance" xsi:noNamespaceSchemaLocation="http://sumo.dlr.de/xsd/routes_file.xsd">
    <vType id="veh_passenger" vClass="passenger"/>
    <vehicle id="veh0" type="veh_passenger" depart="0.00" departLane="best">
        <route edges="-1311477674 -1225836705#2 -1225836705#1 -1225836705#0 1225836704 -1225836701#3 -1225836701#2 -544627881#2 -544627881#1 -544627881#0 -1084156505#7 -1084156505#5 -1084156505#4 -1084156505#3 -1084156505#2 -1084156505#0"/>
    </vehicle>
    <vehicle id="veh1" type="veh_passenger" depart="2.91" departLane="best">
        <route edges="41048027 1225836706 -161470059#1 -161470059#0 -161470060#0"/>
    </vehicle>
    <vehicle id="veh2" type="veh_passenger" depart="5.83" departLane="best">
        <route edges="-544627811#0 -1311477674 -1225836705#2 -1225836705#1 -1225836705#0 -1225836702 544627869 1206337916#0 1206337916#1 1206337916#2 1206337916#3"/>
    </vehicle>
    <vehicle id="veh3" type="veh_passenger" depart="8.74" departLane="best">
        <route edges="544627913#1 1206337918 989200440#1 -544627903#2 -544627903#1 -544627903#0 -1469077787 -1206337916#3 -1206337916#2 -1206337916#1 -1206337916#0 -544627870#0 1225836702 1225836704 -1225836701#3 -1225836701#2"/>
    </vehicle>
    <vehicle id="veh4" type="veh_passenger" depart="11.65" departLane="best" departSpeed="max">
        <route edges="-739650752#5 -739650752#4 -739650752#3 -739650752#2 -739650752#1 -739650752#0 -1361700368#0 -1311477674 -23220996 -1225836700 -1084156505#10"/>
    </vehicle>
    <vehicle id="veh5" type="veh_passenger" depart="14.56" departLane="best" departSpeed="max">
        <route edges="-1472041277 1472041280#1 -739650752#4 -739650752#3 -739650752#2 -739650752#1 -739650752#0 -1361700368#0 -1311477674 -1225836705#2 -1225836705#1 -1225836705#0 1225836704 -1225836701#3 -1225836701#2 -544627881#2 -544627881#1 -544627881#0 1084156505#8"/>
    </vehicle>
    <vehicle id="veh6" type="veh_passenger" depart="17.48" departLane="best">
        <route edges="1084156505#2 1084156505#3 1084156505#4 1084156505#5 1084156505#7 1084156505#8 -1469077800#2 -1469077800#1"/>
    </vehicle>
    <vehicle id="veh7" type="veh_passenger" depart="20.39" departLane="best">
        <route edges="1361700372#0 1361700372#1 1361700372#2 -764430994 -286385474 544627892#1 -544627870#2 -544627870#1 1206337916#0 1206337916#1 1206337916#2 1206337916#3 1469077787 544627903#0 544627903#1 544627903#2 1206337919"/>
    </vehicle>
    <vehicle id="veh8" type="veh_passenger" depart="23.30" departLane="best" departSpeed="max">
        <route edges="-1472041277 1472041280#1 -739650752#4 -739650752#3 -739650752#2 -739650752#1 -739650752#0 -1361700368#0 -1311477674 -1225836705#2"/>
    </vehicle>
    <vehicle id="veh9" type="veh_passenger" depart="26.22" departLane="best">
        <route edges="544627870#5 544627870#6 544627870#7 1225836706 1084156506 -905377121#1 -1002086883"/>
    </vehicle>
    <vehicle id="veh10" type="veh_passenger" depart="29.13" departLane="best">
        <route edges="544627870#4 544627874 -113784607#0 272564634#0 272564634#1 1084156505#2 1084156505#3 1084156505#4 1084156505#5 -544627883#2 1469077800#0"/>
    </vehicle>
    <vehicle id="veh11" type="veh_passenger" depart="32.04" departLane="best">
        <route edges="544627883#2 -1084156505#5 -1084156505#4 -764430993#1 -764430993#0 -1361700372#2"/>
    </vehicle>
    <vehicle id="veh12" type="veh_passenger" depart="34.95" departLane="best" departSpeed="max">
        <route edges="739767743 739767743-AddedOffRampEdge 905377119 905377117#1-AddedOnRampEdge 905377117#1 161470059#1 1084156506 50677938#1 1084156504#0 1084156504#1 1084156504#2 -544627886#1"/>
    </vehicle>
    <vehicle id="veh13" type="veh_passenger" depart="37.87" departLane="best">
        <route edges="-1225836700 -1084156505#10 -1084156505#9 -1084156505#8 544627881#0 544627881#1 544627881#2 1225836701#2 1225836701#3 -1225836704"/>
    </vehicle>
    <vehicle id="veh14" type="veh_passenger" depart="40.78" departLane="best">
        <route edges="544627870#4 544627874 -113784607#0 272564634#0 272564634#1 1084156505#2 1084156505#3 1084156505#4 1084156505#5 1084156505#7 1084156505#8 1084156505#9 1084156505#10 1225836700 1225836699 217847391#0 217847391#1"/>
    </vehicle>
    <vehicle id="veh15" type="veh_passenger" depart="43.69" departLane="best">
        <route edges="1084156505#3 1084156505#4 1084156505#5 1084156505#7 544627881#0 544627881#1 544627881#2 1225836701#2 -544627879#1 -544627879#0 832891258#0"/>
    </vehicle>
    <vehicle id="veh16" type="veh_passenger" depart="46.61" departLane="best" departSpeed="max">
        <route edges="-544627899#2 -544627899#1 -544627899#0 -544627897#1 544627896#1 1084156505#5 1084156505#7 1084156505#8 1084156505#9 1084156505#10 1225836700 1225836699 217847391#0 1218774263"/>
    </vehicle>
    <vehicle id="veh17" type="veh_passenger" depart="49.52" departLane="best">
        <route edges="544627879#0 544627879#1 -1225836701#2 -544627881#2 -544627881#1 -544627881#0 1084156505#8 -1469077800#2 -1469077796 1469077797#1 -1469077793 -832891264#0 217847391#2 1253815128#0 1253815128#1"/>
    </vehicle>
    <vehicle id="veh18" type="veh_passenger" depart="52.43" departLane="best">
        <route edges="544627891#0 -764430992#0 -1361700372#2 -1361700372#1 -1361700372#0 1361700371 1225836701#1 1225836701#2 1225836701#3 1225836703 1225836702"/>
    </vehicle>
    <vehicle id="veh19" type="veh_passenger" depart="55.34" departLane="best" departSpeed="max">
        <route edges="1472041279 1472041280#1 -739650752#4 -739650752#3 -739650752#2 -739650752#1 -739650752#0 -1361700368#0 -1311477674 -1225836705#2 -1225836705#1 -1225836705#0 1225836704 -1225836701#3 -1225836701#2 -544627881#2 -544627881#1 -544627881#0 -1084156505#7"/>
    </vehicle>
    <vehicle id="veh20" type="veh_passenger" depart="58.26" departLane="best">
        <route edges="161470060#1 161470059#1 1084156506 50677938#1 1084156504#0 1084156504#1 1084156504#2 1084156504#3 -764430992#1 -764430992#0 -1361700372#2 -1361700372#1 -1361700372#0 1361700371 1225836701#1 1225836701#2 1225836701#3 -1225836704 1225836705#0 1225836705#1 1225836705#2 1311477674 1361700368#0 1361700368#1 739650752#1 739650752#2 -544627818"/>
    </vehicle>
    <vehicle id="veh21" type="veh_passenger" depart="61.17" departLane="best" departSpeed="max">
        <route edges="-1218774263 -217847391#0 -1225836698 -1084156505#10 -1084156505#9 -1084156505#8 -1084156505#7 -1084156505#5 -1084156505#4 -1084156505#3 -1084156505#2 -1084156505#0 -1084156502#1 -1084156502#0 -50677938#1 -50677938#0 -161470059#1 -161470059#0 -161470060#0"/>
    </vehicle>
    <vehicle id="veh22" type="veh_passenger" depart="64.08" departLane="best">
        <route edges="-1225836701#2 -1225836701#1 286385461 1361700372#0 1361700372#1 1361700372#2 764430992#0 764430992#1 -1229238572 -1084156504#2 -1084156504#1 -1084156504#0 -50677938#1"/>
    </vehicle>
    <vehicle id="veh23" type="veh_passenger" depart="67.00" departLane="best">
        <route edges="-1253815776 1253815135#1 -1253815128#0 -217847391#2 832891264#0 1469077793 -1469077797#1 1469077796 1469077800#2 -1084156505#8 -1084156505#7 -1084156505#5 -1084156505#4 -764430993#1 -544627897#2"/>
    </vehicle>
    <vehicle id="veh24" type="veh_passenger" depart="69.91" departLane="best">
        <route edges="-544627897#2 544627899#0 -1361700372#1 -1361700372#0 1361700371 1225836701#1 1225836701#2 1225836701#3 -1225836704 1225836705#0 1225836705#1 1225836705#2 1311477674 1361700368#0 1361700368#1 739650752#1 739650752#2 739650752#3 739650752#4 -1472041280#1 -1472041280#0"/>
    </vehicle>
    <vehicle id="veh25" type="veh_passenger" depart="72.82" departLane="best">
        <route edges="-272564634#1 -272564634#0 -1229238572 -1084156504#2 -1084156504#1 -1084156504#0 -50677938#1 -50677938#0 -161470059#1 905377114 905377114-AddedOffRampEdge 905377113 739653946#1-AddedOnRampEdge 739653946#1"/>
    </vehicle>
    <vehicle id="veh26" type="veh_passenger" depart="75.73" departLane="best">
        <route edges="-1361700368#0 -1311477674 -23220996 1225836699 217847391#0 217847391#1"/>
    </vehicle>
    <vehicle id="veh27" type="veh_passenger" depart="78.65" departLane="best" departSpeed="max">
        <route edges="-1253815776 1253815135#1 -1253815128#0 -217847391#2 832891264#0 1469077793 -1469077797#1 1469077796 1469077800#2 -1084156505#8 544627881#0 544627881#1 544627881#2 1225836701#2 1225836701#3 1225836703 544627869 1206337916#0 1206337916#1 1206337916#2 1206337916#3 1469077787 544627903#0 544627903#1 544627903#2 -989200440#1 -989200440#0 -544627913#1 -544627913#0"/>
    </vehicle>
    <vehicle id="veh28" type="veh_passenger" depart="81.56" departLane="best">
        <route edges="-832891265#1 -832891265#0 544627883#1 544627883#2 544627897#0 -544627896#0 -1361700372#0 1361700371"/>
    </vehicle>
    <vehicle id="veh29" type="veh_passenger" depart="84.47" departLane="best">
        <route edges="113784607#0 -1361700381 544627870#5 544627870#6 1469077779#0 1469077779#1 -1469077784#0 1469077785#1"/>
    </vehicle>
    <vehicle id="veh30" type="veh_passenger" depart="87.39" departLane="best">
        <route edges="544627883#2 1084156505#7 544627881#0 544627881#1 544627881#2 1225836701#2 1225836701#3 -1225836704 1225836705#0 1225836705#1 1225836705#2 1311477674 202762440 544627811#1"/>
    </vehicle>
    <vehicle id="veh31" type="veh_passenger" depart="90.30" departLane="best">
        <route edges="161470060#1 161470059#1 1084156506 50677938#1 1084156502#0 1084156502#1 1084156502#2 1084156505#2"/>
    </vehicle>
    <vehicle id="veh32" type="veh_passenger" depart="93.21" departLane="best">
        <route edges="544627870#4 544627870#5 544627870#6 544627870#7 -41047981"/>
    </vehicle>
    <vehicle id="veh33" type="veh_passenger" depart="96.12" departLane="best">
        <route edges="-1469077797#1 1469077796 1469077800#2 -1084156505#8 -1084156505#7 -1084156505#5 -1084156505#4 -1084156505#3 -1084156505#2 -1084156505#0 -1084156502#1 -1084156502#0 -50677938#1 -50677938#0 -161470059#1 905377114 905377114-AddedOffRampEdge 905377113 739653946#1-AddedOnRampEdge 739653946#1"/>
    </vehicle>
    <vehicle id="veh34" type="veh_passenger" depart="99.04" departLane="best">
        <route edges="544627899#0 1361700372#2 764430992#0 764430992#1 113784607#0 -1361700381 544627870#5 544627870#6 1469077779#0 -544627875"/>
    </vehicle>
    <vehicle id="veh35" type="veh_passenger" depart="101.95" departLane="best">
        <route edges="-1361700372#1 -1361700372#0 1361700371 1225836701#1 1225836701#2 1225836701#3 -1225836704 1225836705#0 1225836705#1 1225836705#2 1311477674 1361700368#0 1361700368#1 739650752#1"/>
    </vehicle>
    <vehicle id="veh36" type="veh_passenger" depart="104.86" departLane="best" departSpeed="max">
        <route edges="739650748 739650748-AddedOffRampEdge 739650738 739650736#1-AddedOnRampEdge 739650736#1 739650736#1-AddedOffRampEdge 905377117#0 905377117#1-AddedOnRampEdge 905377117#1 161470059#1 -1225836706 -544627873 -544627870#6 -544627870#5 -544627870#4 -544627870#2 -544627870#1 1206337916#0 1206337916#1 1206337916#2 1206337916#3 1469077787 544627903#0 544627903#1 544627903#2 -989200440#1 -989200440#0"/>
    </vehicle>
    <vehicle id="veh37" type="veh_passenger" depart="107.78" departLane="best">
        <route edges="272564634#0 272564634#1 1084156505#2 1084156505#3 1084156505#4 1084156505#5 1084156505#7 1084156505#8 -1469077800#2 -1469077796 1469077797#1 -1469077793 -832891264#0 217847391#2 217847391#3"/>
    </vehicle>
    <vehicle id="veh38" type="veh_passenger" depart="110.69" departLane="best">
        <route edges="113784607#3 544627892#1 544627870#4 544627870#5 544627870#6 544627870#7 -41047981"/>
    </vehicle>
    <vehicle id="veh39" type="veh_passenger" depart="113.60" departLane="best">
        <route edges="-1225836700 -1084156505#10 -1084156505#9 -1084156505#8 -1084156505#7 -1084156505#5 -1084156505#4 -1084156505#3 -1084156505#2 -1084156505#0 -1084156502#1 -1084156502#0 -50677938#1 -50677938#0 -161470059#1 905377114 905377114-AddedOffRampEdge 905377116#1 739653932#1-AddedOnRampEdge 739653932#1 739653932#1-AddedOffRampEdge 739650727#1 739650718#1-AddedOnRampEdge 739650718#1"/>
    </vehicle>
    <vehicle id="veh40" type="veh_passenger" depart="116.51" departLane="best">
        <route edges="-739650752#0 -1361700368#0 -1311477674 -1225836705#2 -1225836705#1 -1225836705#0 1225836704 -1225836701#3 -1225836701#2 -1225836701#1 286385461 1361700372#0 1361700372#1 1361700372#2 764430992#0 764430992#1 -1229238572 -1084156504#2 -1084156504#1 -1084156504#0 -50677938#1 -50677938#0 -161470059#1 -161470059#0 -161470060#0"/>
    </vehicle>
    <vehicle id="veh41" type="veh_passenger" depart="119.43" departLane="best">
        <route edges="905377121#1 50677938#1 1084156502#0 1084156502#1 1084156502#2 1084156505#2 1084156505#3 1084156505#4 1084156505#5 1084156505#7 1084156505#8 1084156505#9"/>
    </vehicle>
    <vehicle id="veh42" type="veh_passenger" depart="122.34" departLane="best">
        <route edges="-1225836699 -1225836700 -1084156505#10 -1084156505#9 -1084156505#8"/>
    </vehicle>
    <vehicle id="veh43" type="veh_passenger" depart="125.25" departLane="best">
        <route edges="1225836704 -1225836701#3 -1225836701#2 -544627881#2 -544627881#1 -544627881#0 1084156505#8 -1469077800#2 -1469077796 1469077797#1 -1469077793 -832891264#0 217847391#2 1253815128#0 -1253815135#1 1253815776"/>
    </vehicle>
    <vehicle id="veh44" type="veh_passenger" depart="128.17" departLane="best">
        <route edges="-544627811#1 -544627811#0 -1311477674 -1225836705#2 -1225836705#1 -1225836705#0 1225836704 -1225836701#3 -1225836701#2 -1225836701#1 286385461 1361700372#0 1361700372#1 1361700372#2 -764430994"/>
    </vehicle>
    <vehicle id="veh45" type="veh_passenger" depart="131.08" departLane="best">
        <route edges="1206337916#0 1206337916#1 1206337916#2 1206337916#3 1469077787 544627903#0 544627903#1 544627903#2 -989200440#1 -989200440#0 -544627913#1"/>
    </vehicle>
    <vehicle id="veh46" type="veh_passenger" depart="133.99" departLane="best">
        <route edges="881660914#2 -881660914#0 -832891258#0 544627879#0 544627879#1 1225836701#3 1225836703 544627869 1206337916#0 1206337916#1 1206337916#2 1206337916#3 1469077787 544627903#0 544627903#1 544627903#2 -989200440#1 -989200440#0 1206337915"/>
    </vehicle>
    <vehicle id="veh47" type="veh_passenger" depart="136.90" departLane="best">
        <route edges="832891255 -1225836705#1 -1225836705#0 1225836704 -1225836701#3 -1225836701#2 -1225836701#1 286385461 1361700372#0 1361700372#1 -544627899#0 544627897#2"/>
    </vehicle>
    <vehicle id="veh48" type="veh_passenger" depart="139.82" departLane="best">
        <route edges="-1084156504#1 -1084156504#0 -50677938#1 -50677938#0 -161470059#1 -161470059#0"/>
    </vehicle>
    <vehicle id="veh49" type="veh_passenger" depart="142.73" departLane="best">
        <route edges="1469077784#1 -1469077779#0 -544627870#6 -544627870#5 -544627870#4 -544627870#2 -544627870#1 1206337916#0 1206337916#1 1206337916#2 1206337916#3 1469077787 544627903#0 544627903#1 544627903#2 -989200440#1 -989200440#0"/>
    </vehicle>
    <vehicle id="veh50" type="veh_passenger" depart="145.64" departLane="best">
        <route edges="-272564634#1 -272564634#0 -764430992#1 -764430992#0 -1361700372#2 -1361700372#1 -1361700372#0 1361700371"/>
    </vehicle>
    <vehicle id="veh51" type="veh_passenger" depart="148.56" departLane="best">
        <route edges="1225836704 -1225836701#3 -1225836701#2 -544627881#2 -544627881#1 -544627881#0 1084156505#8 -1469077800#2 -1469077796 1469077797#1 -1469077793"/>
    </vehicle>
    <vehicle id="veh52" type="veh_passenger" depart="151.47" departLane="best">
        <route edges="-832891258#0 544627879#0 544627879#1 -1225836701#2 -1225836701#1 286385461 1361700372#0 1361700372#1 1361700372#2 764430992#0 764430992#1"/>
    </vehicle>
    <vehicle id="veh53" type="veh_passenger" depart="154.38" departLane="best">
        <route edges="544627899#0 1361700372#2 764430992#0 764430992#1 113784607#0 -1361700381 544627870#5 544627870#6 544627870#7 -41047981"/>
    </vehicle>
    <vehicle id="veh54" type="veh_passenger" depart="157.29" departLane="best" departSpeed="max">
        <route edges="1050305617 1050305617-AddedOffRampEdge 1436392800 739650736#1-AddedOnRampEdge 739650736#1 739650736#1-AddedOffRampEdge 905377117#0 905377117#1-AddedOnRampEdge 905377117#1 161470059#1 -1225836706 -544627873 1469077779#0 1469077779#1 -1469077784#0 1469077781"/>
    </vehicle>
    <vehicle id="veh55" type="veh_passenger" depart="160.21" departLane="best" departSpeed="max">
        <route edges="739650748 739650748-AddedOffRampEdge 739650738 739650736#1-AddedOnRampEdge 739650736#1 739650736#1-AddedOffRampEdge 905377117#0 905377117#1-AddedOnRampEdge 905377117#1 161470059#1 1084156506 50677938#1 1084156504#0 1084156504#1 1084156504#2 1084156504#3 -764430992#1 -764430992#0 -1361700372#2 544627899#1 544627899#2"/>
    </vehicle>
    <vehicle id="veh56" type="veh_passenger" depart="163.12" departLane="best" departSpeed="max">
        <route edges="-544627811#1 -544627811#0 1361700368#0 1361700368#1"/>
    </vehicle>
    <vehicle id="veh57" type="veh_passenger" depart="166.03" departLane="best">
        <route edges="-1225836705#1 -1225836705#0 1225836704 -1225836701#3 -1225836701#2 -1225836701#1 286385461 1361700372#0 1361700372#1"/>
    </vehicle>
    <vehicle id="veh58" type="veh_passenger" depart="168.95" departLane="best">
        <route edges="-286385474 544627892#1 -544627870#2 -544627870#1 1206337916#0 1206337916#1 1206337916#2 1206337916#3 1469077787 544627903#0 544627903#1 544627903#2 1206337919"/>
    </vehicle>
    <vehicle id="veh59" type="veh_passenger" depart="171.86" departLane="best" departSpeed="max">
        <route edges="41048027 -544627873 -544627870#6 -544627870#5 -544627870#4 -544627870#2 -544627870#1 1206337916#0"/>
    </vehicle>
    <vehicle id="veh60" type="veh_passenger" depart="174.77" departLane="best">
        <route edges="1002086883 905377121#1 50677938#1 1084156504#0 1084156504#1 1084156504#2 1084156504#3 -764430992#1 -764430992#0 -1361700372#2 -1361700372#1 -1361700372#0 1361700371 1225836701#1 1225836701#2 1225836701#3 -1225836704 1225836705#0 -544627880"/>
    </vehicle>
    <vehicle id="veh61" type="veh_passenger" depart="177.68" departLane="best">
        <route edges="-1084156505#0 544627886#0 544627886#1 1084156504#3 -764430992#1 -764430992#0 -1361700372#2 -1361700372#1 -1361700372#0 1361700371 1225836701#1 1225836701#2 1225836701#3 -1225836704 1225836705#0 1225836705#1 1225836705#2 1311477674 1361700368#0 1361700368#1 739650752#1 739650752#2 739650752#3 739650752#4 739650752#5"/>
    </vehicle>
    <vehicle id="veh62" type="veh_passenger" depart="180.60" departLane="best">
        <route edges="-544627899#1 1361700372#2 764430992#0 764430992#1 -1229238572 -544627886#1 -544627886#0"/>
    </vehicle>
    <vehicle id="veh63" type="veh_passenger" depart="183.51" departLane="best">
        <route edges="-544627870#0 1225836702 1225836704 -1225836701#3 -1225836701#2 -1225836701#1 -113784607#4"/>
    </vehicle>
    <vehicle id="veh64" type="veh_passenger" depart="186.42" departLane="best">
        <route edges="-544627899#1 1361700372#2 764430992#0 764430992#1 -1229238572 -1084156504#2 -1084156504#1 -1084156504#0 -50677938#1 -50677938#0 -161470059#1 905377114 905377114-AddedOffRampEdge 905377113 739653946#1-AddedOnRampEdge 739653946#1"/>
    </vehicle>
    <vehicle id="veh65" type="veh_passenger" depart="189.34" departLane="best" departSpeed="max">
        <route edges="-1218774263 -217847391#0 -1225836698 -1084156505#10"/>
    </vehicle>
    <vehicle id="veh66" type="veh_passenger" depart="192.25" departLane="best" departSpeed="max">
        <route edges="-1206337919 -544627903#2 -544627903#1 -544627903#0 -1469077787 -1206337916#3 -1206337916#2 -1206337916#1 -1206337916#0 544627870#1 544627870#2 832891275 113784607#4 286385461"/>
    </vehicle>
    <vehicle id="veh67" type="veh_passenger" depart="195.16" departLane="best">
        <route edges="544627923 905377121#1 50677938#1 1084156502#0 1084156502#1 1084156502#2 1084156505#2 1084156505#3 1084156505#4 1084156505#5 1084156505#7 1084156505#8 1084156505#9 1084156505#10 1225836700 1225836699 217847391#0 1218774263"/>
    </vehicle>
    <vehicle id="veh68" type="veh_passenger" depart="198.07" departLane="best">
        <route edges="-272564634#0 113784607#0 -1361700381 -544627870#4 -544627870#2 -544627870#1 1206337916#0 1206337916#1 1206337916#2 1206337916#3 1469077787 544627903#0"/>
    </vehicle>
    <vehicle id="veh69" type="veh_passenger" depart="200.99" departLane="best" departSpeed="max">
        <route edges="-739650752#5 -1472041280#1"/>
    </vehicle>
    <vehicle id="veh70" type="veh_passenger" depart="203.90" departLane="best">
        <route edges="1084156505#4 1084156505#5 1084156505#7 1084156505#8 1084156505#9 1084156505#10 1225836700 1225836699 217847391#0 217847391#1"/>
    </vehicle>
    <vehicle id="veh71" type="veh_passenger" depart="206.81" departLane="best">
        <route edges="1469077785#2 -1469077776#0 1469077784#1 -1469077779#0 544627870#7"/>
    </vehicle>
    <vehicle id="veh72" type="veh_passenger" depart="209.73" departLane="best">
        <route edges="881660914#2 -881660914#0 -832891258#0 544627879#0 544627879#1 -1225836701#2 -1225836701#1 286385461 1361700372#0 1361700372#1 1361700372#2"/>
    </vehicle>
    <vehicle id="veh73" type="veh_passenger" depart="212.64" departLane="best">
        <route edges="-764430993#0 764430992#0 -544627891#0 113784607#3"/>
    </vehicle>
    <vehicle id="veh74" type="veh_passenger" depart="215.55" departLane="best">
        <route edges="-1225836705#2 -1225836705#1 -1225836705#0 1225836704 -1225836701#3 -1225836701#2 -1225836701#1 286385461 1361700372#0 1361700372#1 1361700372#2 764430992#0 764430992#1 -1229238572 -1084156504#2 -1084156504#1 -1084156504#0 -50677938#1 -50677938#0 -161470059#1 -161470059#0 -161470060#0"/>
    </vehicle>
    <vehicle id="veh75" type="veh_passenger" depart="218.46" departLane="best">
        <route edges="-544627883#0 1084156505#2 1084156505#3 1084156505#4 1084156505#5 1084156505#7 544627881#0 544627881#1 544627881#2 1225836701#2 1225836701#3 -1225836704 1225836705#0 1225836705#1 1225836705#2"/>
    </vehicle>
    <vehicle id="veh76" type="veh_passenger" depart="221.38" departLane="best">
        <route edges="-161470059#1 -161470059#0 -161470060#0"/>
    </vehicle>
    <vehicle id="veh77" type="veh_passenger" depart="224.29" departLane="best" departSpeed="max">
        <route edges="-1206337919 -544627903#2 -544627903#1 -544627903#0 -1469077787 -1206337916#3 -1206337916#2 -1206337916#1 -1206337916#0 -544627870#0 1225836702 1225836705#0 1225836705#1 1225836705#2 1311477674"/>
    </vehicle>
    <vehicle id="veh78" type="veh_passenger" depart="227.20" departLane="best">
        <route edges="161470060#1 905377114 905377114-AddedOffRampEdge 905377116#1 739653932#1-AddedOnRampEdge 739653932#1 739653932#1-AddedOffRampEdge 739650727#1 739650718#1-AddedOnRampEdge 739650718#1"/>
    </vehicle>
    <vehicle id="veh79" type="veh_passenger" depart="230.12" departLane="best">
        <route edges="544627887#2 544627886#5 1084156504#1 1084156504#2 1084156504#3 -764430992#1 -764430992#0 764430993#0 764430993#1 1084156505#4 1084156505#5 1084156505#7 1084156505#8 1084156505#9 1084156505#10 1225836700 1225836699 217847391#0 1218774263"/>
    </vehicle>
    <vehicle id="veh80" type="veh_passenger" depart="233.03" departLane="best">
        <route edges="-217847391#0 -1225836699 23220996 1311477674 1361700368#0 1361700368#1"/>
    </vehicle>
    <vehicle id="veh81" type="veh_passenger" depart="235.94" departLane="best">
        <route edges="-1469077800#1 1469077797#0 1469077797#1 -1469077793 -832891264#0 217847391#2 1253815128#0 -1253815135#1 -1253815135#0"/>
    </vehicle>
    <vehicle id="veh82" type="veh_passenger" depart="238.85" departLane="best">
        <route edges="-739650752#3 -739650752#2 -739650752#1 -739650752#0 -1361700368#0 -1311477674 -1225836705#2 -1225836705#1 -1225836705#0 1225836704 -1225836701#3"/>
    </vehicle>
    <vehicle id="veh83" type="veh_passenger" depart="241.77" departLane="best">
        <route edges="-881660914#1 -881660914#0 832891258#1 832891255 1225836705#2 1311477674 202762440 544627811#1"/>
    </vehicle>
    <vehicle id="veh84" type="veh_passenger" depart="244.68" departLane="best">
        <route edges="544627870#4 544627874 -113784607#0 272564634#0 272564634#1 1084156505#2 1084156505#3 1084156505#4 1084156505#5 1084156505#7 1084156505#8 -1469077800#2 -1469077796 1469077797#1 -1469077793"/>
    </vehicle>
    <vehicle id="veh85" type="veh_passenger" depart="247.59" departLane="best">
        <route edges="-1225836701#1 286385461 1361700372#0 544627896#0 -544627897#0 -544627883#2 -544627883#1 832891265#0 832891265#1 832891262#0 832891262#1"/>
    </vehicle>
    <vehicle id="veh86" type="veh_passenger" depart="250.51" departLane="best" departSpeed="max">
        <route edges="-739650752#5 -739650752#4 -739650752#3 -739650752#2 -739650752#1 -739650752#0 -1361700368#0 -1311477674 -1225836705#2 -1225836705#1 -1225836705#0 1225836704 -1225836701#3 -1225836701#2 -1225836701#1 286385461 1361700372#0 1361700372#1 1361700372#2 764430992#0 764430992#1 -1229238572 -1084156504#2 -1084156504#1 -1084156504#0 1084156502#0 1084156502#1"/>
    </vehicle>
    <vehicle id="veh87" type="veh_passenger" depart="253.42" departLane="best" departSpeed="max">
        <route edges="161470060#0 161470060#1 161470059#1 -1225836706 -544627873 1469077779#0 1469077779#1 1469077776#0 1469077776#1"/>
    </vehicle>
    <vehicle id="veh88" type="veh_passenger" depart="256.33" departLane="best">
        <route edges="832891264#1 -832891263 -1469077797#1 1469077796 1469077800#2 -1084156505#8 544627881#0 544627881#1 544627881#2 1225836701#2 1225836701#3 -1225836704 1225836705#0"/>
    </vehicle>
    <vehicle id="veh89" type="veh_passenger" depart="259.24" departLane="best">
        <route edges="-739650752#1 -739650752#0 -1361700368#0 -1311477674 -1225836705#2 -1225836705#1 -1225836705#0 1225836704 -1225836701#3 -1225836701#2 -1225836701#1 -113784607#4 -113784607#3 -113784607#2 544627885 544627887#0 -544627886#2"/>
    </vehicle>
    <vehicle id="veh90" type="veh_passenger" depart="262.16" departLane="best">
        <route edges="544627891#0 -764430992#0 -1361700372#2 -1361700372#1 -1361700372#0 1361700371 1225836701#1 1225836701#2 1225836701#3 -1225836704 1225836705#0 1225836705#1 1225836705#2 -23220996"/>
    </vehicle>
    <vehicle id="veh91" type="veh_passenger" depart="265.07" departLane="best">
        <route edges="1469077776#2 1469077776#4 -1206337916#2 -1206337916#1 -1206337916#0 544627870#1 544627870#2 544627870#4 544627874 -113784607#0 -1229238572 -1084156504#2 -1084156504#1 -1084156504#0 -50677938#1 -905377121#1 -905377121#0"/>
    </vehicle>
    <vehicle id="veh92" type="veh_passenger" depart="267.98" departLane="best" departSpeed="max">
        <route edges="-739650752#5 -739650752#4 -739650752#3 -739650752#2 -739650752#1 -739650752#0 -1361700368#0 -1311477674 -1225836705#2 -1225836705#1 -1225836705#0 1225836704 -1225836701#3 -1225836701#2 -1225836701#1 286385461 1361700372#0 1361700372#1 1361700372#2 764430992#0 764430992#1 -1229238572 -1084156504#2 -1084156504#1 -1084156504#0 -50677938#1"/>
    </vehicle>
    <vehicle id="veh93" type="veh_passenger" depart="270.90" departLane="best" departSpeed="max">
        <route edges="-217847391#3 -217847391#2 -217847391#1 -217847391#0 -1225836699 23220996 1311477674 1361700368#0 1361700368#1 739650752#1 739650752#2 739650752#3 739650752#4 739650752#5"/>
    </vehicle>
    <vehicle id="veh94" type="veh_passenger" depart="273.81" departLane="best">
        <route edges="-832891255 832891257 544627879#1 -1225836701#2 -1225836701#1 286385461 1361700372#0 1361700372#1 -544627899#0"/>
    </vehicle>
    <vehicle id="veh95" type="veh_passenger" depart="276.72" departLane="best">