<?xml version="1.0" encoding="UTF-8"?>

<!-- generated on 2026-03-28 18:23:03.650918 by Eclipse SUMO osmWebWizard.py v1_26_0+0000-fa7df22d7f1
<configuration>
    <net-file value="C:\Users\deepa\Sumo\2026-03-28-18-22-27\osm.net.xml.gz"/>
    <output-trip-file value="C:\Users\deepa\Sumo\2026-03-28-18-22-27\osm.passenger.trips.xml"/>
    <route-file value="C:\Users\deepa\Sumo\2026-03-28-18-22-27\osm.passenger.rou.xml"/>
    <prefix value="veh"/>
    <trip-attributes value="departLane=&quot;best&quot;"/>
    <fringe-start-attributes value="departSpeed=&quot;max&quot;"/>
    <vehicle-class value="passenger"/>
    <lanes value="True"/>
    <fringe-factor value="5"/>
    <allow-fringe.min-length value="1000.0"/>
    <edge-permission value="passenger"/>
    <via-edge-types value="highway.motorway,highway.motorway_link,highway.trunk_link,highway.primary_link,highway.secondary_link,highway.tertiary_link"/>
    <min-distance value="300.0"/>
    <min-distance.fringe value="10.0"/>
    <remove-loops value="True"/>
    <insertion-density value="12.0"/>
</configuration>
-->

<routes xmlns:xsi="http://www.w3.org/2001/XMLSchema-instance" xsi:noNamespaceSchemaLocation="http://sumo.dlr.de/xsd/routes_file.xsd">
    <vType id="veh_passenger" vClass="passenger"/>
    <trip id="veh0" depart="0.00" from="186952365#4" to="-127843743#5" departLane="best" type="veh_passenger"/>
    <trip id="veh1" depart="2.14" from="-609879683" to="-59217085#0" departLane="best" type="veh_passenger" departSpeed="max"/>
    <trip id="veh2" depart="4.27" from="29293345#7" to="237008295#4" departLane="best" type="veh_passenger"/>
    <trip id="veh3" depart="6.41" from="59181738#1" to="-28947684#10" departLane="best" type="veh_passenger"/>
    <trip id="veh4" depart="8.54" from="127843506#6" to="-127844311#5" departLane="best" type="veh_passenger"/>
    <trip id="veh5" depart="10.68" from="-1181110238" to="-59217015#0" departLane="best" type="veh_passenger"/>
    <trip id="veh6" depart="12.82" from="195186211#1" to="162382438#0" departLane="best" type="veh_passenger"/>
    <trip id="veh7" depart="14.95" from="-59216992#1" to="175226609#1" departLane="best" type="veh_passenger"/>
    <trip id="veh8" depart="17.09" from="4231223#0" to="-107125059#3" departLane="best" type="veh_passenger"/>
    <trip id="veh9" depart="19.22" from="33616388#0" to="24804550#1" departLane="best" type="veh_passenger"/>
    <trip id="veh10" depart="21.36" from="675930560#4" to="1097512813#3" departLane="best" type="veh_passenger"/>
    <trip id="veh11" depart="23.49" from="-173229518#7" to="-29293345#2" departLane="best" type="veh_passenger" departSpeed="max"/>
    <trip id="veh12" depart="25.63" from="571143520#0" to="184540879#4" departLane="best" type="veh_passenger"/>
    <trip id="veh13" depart="27.77" from="33616388#2" to="29293357#1" departLane="best" type="veh_passenger"/>
    <trip id="veh14" depart="29.90" from="146689778#0" to="723605571#1" departLane="best" type="veh_passenger" departSpeed="max"/>
    <trip id="veh15" depart="32.04" from="1145602708" to="172805320#0" departLane="best" type="veh_passenger"/>
    <trip id="veh16" depart="34.17" from="42710138#3" to="189306943#1" departLane="best" type="veh_passenger"/>
    <trip id="veh17" depart="36.31" from="571143712#0" to="173319136#3" departLane="best" type="veh_passenger"/>
    <trip id="veh18" depart="38.45" from="24476170#2" to="-161809907#1" departLane="best" type="veh_passenger"/>
    <trip id="veh19" depart="40.58" from="-59217008#0" to="1055591506#1" departLane="best" type="veh_passenger"/>
    <trip id="veh20" depart="42.72" from="-162382438#2" to="-609879681" departLane="best" type="veh_passenger"/>
    <trip id="veh21" depart="44.85" from="184541681#5" to="1191265282#0" departLane="best" type="veh_passenger"/>
    <trip id="veh22" depart="46.99" from="1115884115#1" to="-59217039" departLane="best" type="veh_passenger"/>
    <trip id="veh23" depart="49.12" from="-609879680#1" to="59221332#1" departLane="best" type="veh_passenger"/>
    <trip id="veh24" depart="51.26" from="194283844#2" to="184540883#2" departLane="best" type="veh_passenger"/>
    <trip id="veh25" depart="53.40" from="-42673840" to="29293357#0" departLane="best" type="veh_passenger" departSpeed="max"/>
    <trip id="veh26" depart="55.53" from="-308886898#2" to="121782621#4" departLane="best" type="veh_passenger"/>
    <trip id="veh27" depart="57.67" from="900579604#0" to="226280292#0" departLane="best" type="veh_passenger" departSpeed="max"/>
    <trip id="veh28" depart="59.80" from="162382435#0" to="238470908#0" departLane="best" type="veh_passenger"/>
    <trip id="veh29" depart="61.94" from="478892555#2" to="33611837" departLane="best" type="veh_passenger"/>
    <trip id="veh30" depart="64.08" from="-59217015#1" to="-146586678" departLane="best" type="veh_passenger"/>
    <trip id="veh31" depart="66.21" from="104129598#5" to="1030661649#1" departLane="best" type="veh_passenger"/>
    <trip id="veh32" depart="68.35" from="-59198110#2" to="609879682#0" departLane="best" type="veh_passenger" departSpeed="max"/>
    <trip id="veh33" depart="70.48" from="59174472#0" to="1067065527#3" departLane="best" type="veh_passenger" departSpeed="max"/>
    <trip id="veh34" depart="72.62" from="195186214#3" to="127843506#4" departLane="best" type="veh_passenger"/>
    <trip id="veh35" depart="74.75" from="59217019#1" to="1431673175" departLane="best" type="veh_passenger"/>
    <trip id="veh36" depart="76.89" from="162382435#2" to="1030661647" departLane="best" type="veh_passenger"/>
    <trip id="veh37" depart="79.03" from="121903988#0" to="-59217073#3" departLane="best" type="veh_passenger"/>
    <trip id="veh38" depart="81.16" from="983227978" to="146586684#4" departLane="best" type="veh_passenger" departSpeed="max"/>
    <trip id="veh39" depart="83.30" from="-173229518#7" to="-161809912#1" departLane="best" type="veh_passenger" departSpeed="max"/>
    <trip id="veh40" depart="85.43" from="308886898#1" to="127843745#3" departLane="best" type="veh_passenger"/>
    <trip id="veh41" depart="87.57" from="-146612944#1" to="121903988#2" departLane="best" type="veh_passenger"/>
    <trip id="veh42" depart="89.71" from="983227978" to="161809912#0" departLane="best" type="veh_passenger" departSpeed="max"/>
    <trip id="veh43" depart="91.84" from="723617931#0" to="59174428#0" departLane="best" type="veh_passenger"/>
    <trip id="veh44" depart="93.98" from="-1070685886#1" to="29293345#3" departLane="best" type="veh_passenger"/>
    <trip id="veh45" depart="96.11" from="237008295#0" to="162382435#0" departLane="best" type="veh_passenger"/>
    <trip id="veh46" depart="98.25" from="-609879680#1" to="226280292#1" departLane="best" type="veh_passenger"/>
    <trip id="veh47" depart="100.38" from="-24804550#3" to="127844300#9" departLane="best" type="veh_passenger"/>
    <trip id="veh48" depart="102.52" from="128490592#1" to="675930560#3" departLane="best" type="veh_passenger"/>
    <trip id="veh49" depart="104.66" from="59174472#0" to="1030661647" departLane="best" type="veh_passenger" departSpeed="max"/>
    <trip id="veh50" depart="106.79" from="146582103#10" to="-59181738#1" departLane="best" type="veh_passenger"/>
    <trip id="veh51" depart="108.93" from="59217015#1" to="59181723#1" departLane="best" type="veh_passenger"/>
    <trip id="veh52" depart="111.06" from="1010385358#0" to="225932291#1" departLane="best" type="veh_passenger"/>
    <trip id="veh53" depart="113.20" from="175226609#0" to="-42748070" departLane="best" type="veh_passenger"/>
    <trip id="veh54" depart="115.34" from="30803060#0" to="162382435#1" departLane="best" type="veh_passenger"/>
    <trip id="veh55" depart="117.47" from="-1030661647" to="107116217#2" departLane="best" type="veh_passenger" departSpeed="max"/>
    <trip id="veh56" depart="119.61" from="-107125059#3" to="59217085#1" departLane="best" type="veh_passenger"/>
    <trip id="veh57" depart="121.74" from="59181708" to="540489677" departLane="best" type="veh_passenger"/>
    <trip id="veh58" depart="123.88" from="1030661649#0" to="-173229517#0" departLane="best" type="veh_passenger"/>
    <trip id="veh59" depart="126.01" from="-173229517#5" to="146582103#13" departLane="best" type="veh_passenger"/>
    <trip id="veh60" depart="128.15" from="-161809907#2" to="30803182#1" departLane="best" type="veh_passenger" departSpeed="max"/>
    <trip id="veh61" depart="130.29" from="127843506#8" to="-59217054#1" departLane="best" type="veh_passenger"/>
    <trip id="veh62" depart="132.42" from="-59181729#1" to="1061756821#3" departLane="best" type="veh_passenger"/>
    <trip id="veh63" depart="134.56" from="968326900#0" to="234194885#0" departLane="best" type="veh_passenger"/>
    <trip id="veh64" depart="136.69" from="127843745#2" to="146586725#4" departLane="best" type="veh_passenger"/>
    <trip id="veh65" depart="138.83" from="-28947684#16" to="-59217085#2" departLane="best" type="veh_passenger" departSpeed="max"/>
    <trip id="veh66" depart="140.97" from="1060946275#0" to="175226609#1" departLane="best" type="veh_passenger"/>
    <trip id="veh67" depart="143.10" from="-59217015#2" to="-59217077#0" departLane="best" type="veh_passenger" departSpeed="max"/>
    <trip id="veh68" depart="145.24" from="-161809907#2" to="207327840#0" departLane="best" type="veh_passenger" departSpeed="max"/>
    <trip id="veh69" depart="147.37" from="-59217015#1" to="59217019#1" departLane="best" type="veh_passenger"/>
    <trip id="veh70" depart="149.51" from="571143520#8" to="-186952365#4" departLane="best" type="veh_passenger"/>
    <trip id="veh71" depart="151.64" from="-59217019#5" to="237008293#7" departLane="best" type="veh_passenger" departSpeed="max"/>
    <trip id="veh72" depart="153.78" from="-59198177" to="-308886898#0" departLane="best" type="veh_passenger"/>
    <trip id="veh73" depart="155.92" from="59217085#1" to="173319135#2" departLane="best" type="veh_passenger"/>
    <trip id="veh74" depart="158.05" from="144821732#1" to="33616388#0" departLane="best" type="veh_passenger" departSpeed="max"/>
    <trip id="veh75" depart="160.19" from="368736550#0" to="-59216992#1" departLane="best" type="veh_passenger"/>
    <trip id="veh76" depart="162.32" from="-186952365#4" to="127844300#7" departLane="best" type="veh_passenger"/>
    <trip id="veh77" depart="164.46" from="127843726#0" to="144821732#6" departLane="best" type="veh_passenger"/>
    <trip id="veh78" depart="166.60" from="29293345#1" to="237008295#1" departLane="best" type="veh_passenger"/>
    <trip id="veh79" depart="168.73" from="838429000#1" to="-29293345#3" departLane="best" type="veh_passenger"/>
    <trip id="veh80" depart="170.87" from="121903989#0" to="1115849033#1" departLane="best" type="veh_passenger" departSpeed="max"/>
    <trip id="veh81" depart="173.00" from="571143712#0" to="-951781294#0" departLane="best" type="veh_passenger"/>
    <trip id="veh82" depart="175.14" from="-478394241" to="128490592#7" departLane="best" type="veh_passenger" departSpeed="max"/>
    <trip id="veh83" depart="177.27" from="127843506#6" to="104129599#1" departLane="best" type="veh_passenger"/>
    <trip id="veh84" depart="179.41" from="-59217069#4" to="59217073#1" departLane="best" type="veh_passenger"/>
    <trip id="veh85" depart="181.55" from="127844300#1" to="59174428#1" departLane="best" type="veh_passenger"/>
    <trip id="veh86" depart="183.68" from="986647858#0" to="571143520#10" departLane="best" type="veh_passenger"/>
    <trip id="veh87" depart="185.82" from="707995794#0" to="59217077#1" departLane="best" type="veh_passenger"/>
    <trip id="veh88" depart="187.95" from="571143520#1" to="-59174472#0" departLane="best" type="veh_passenger"/>
    <trip id="veh89" depart="190.09" from="144821732#7" to="-59217069#0" departLane="best" type="veh_passenger"/>
    <trip id="veh90" depart="192.23" from="121903988#2" to="-173229517#0" departLane="best" type="veh_passenger"/>
    <trip id="veh91" depart="194.36" from="128490592#2" to="127843745#3" departLane="best" type="veh_passenger"/>
    <trip id="veh92" depart="196.50" from="162382435#0" to="29293345#2" departLane="best" type="veh_passenger"/>
    <trip id="veh93" depart="198.63" from="-30803060#3" to="1059317065#5" departLane="best" type="veh_passenger"/>
    <trip id="veh94" depart="200.77" from="707995794#0" to="173323014#0" departLane="best" type="veh_passenger"/>
    <trip id="veh95" depart="202.90" from="149224270" to="29309201#3" departLane="best" type="veh_passenger" departSpeed="max"/>
    <trip id="veh96" depart="205.04" from="-146586684#2" to="173342299#4" departLane="best" type="veh_passenger"/>
    <trip id="veh97" depart="207.18" from="-30803182#3" to="700759986#5" departLane="best" type="veh_passenger"/>
    <trip id="veh98" depart="209.31" from="-162382438#3" to="-59216987" departLane="best" type="veh_passenger"/>
    <trip id="veh99" depart="211.45" from="173319136#0" to="237008295#2" departLane="best" type="veh_passenger" departSpeed="max"/>
    <trip id="veh100" depart="213.58" from="-59217019#3" to="-30803060#0" departLane="best" type="veh_passenger"/>
    <trip id="veh101" depart="215.72" from="59181729#5" to="-900579604#0" departLane="best" type="veh_passenger"/>
    <trip id="veh102" depart="217.86" from="173319136#0" to="189306943#1" departLane="best" type="veh_passenger" departSpeed="max"/>
    <trip id="veh103" depart="219.99" from="146586684#0" to="59221332#0" departLane="best" type="veh_passenger"/>
    <trip id="veh104" depart="222.13" from="-59181729#6" to="29293345#0" departLane="best" type="veh_passenger"/>
    <trip id="veh105" depart="224.26" from="-59217019#5" to="127843506#5" departLane="best" type="veh_passenger" departSpeed="max"/>
    <trip id="veh106" depart="226.40" from="226280292#6" to="1060946258#1" departLane="best" type="veh_passenger"/>
    <trip id="veh107" depart="228.53" from="-161809912#0" to="1431673175" departLane="best" type="veh_passenger"/>
    <trip id="veh108" depart="230.67" from="-161809912#1" to="-59217062" departLane="best" type="veh_passenger"/>
    <trip id="veh109" depart="232.81" from="59181715#3" to="59181746#0" departLane="best" type="veh_passenger"/>
    <trip id="veh110" depart="234.94" from="1115884115#1" to="-478893590#0" departLane="best" type="veh_passenger"/>
    <trip id="veh111" depart="237.08" from="195186214#1" to="-107125059#5" departLane="best" type="veh_passenger"/>
    <trip id="veh112" depart="239.21" from="4231223#4" to="1060946258#1" departLane="best" type="veh_passenger"/>
    <trip id="veh113" depart="241.35" from="226280292#0" to="609879680#0" departLane="best" type="veh_passenger"/>
    <trip id="veh114" depart="243.49" from="-29293345#6" to="-29293382#3" departLane="best" type="veh_passenger"/>
    <trip id="veh115" depart="245.62" from="-24476173#3" to="172805320#0" departLane="best" type="veh_passenger"/>
    <trip id="veh116" depart="247.76" from="-609879682#2" to="184540880#0" departLane="best" type="veh_passenger" departSpeed="max"/>
    <trip id="veh117" depart="249.89" from="24804550#9" to="-59217019#1" departLane="best" type="veh_passenger"/>
    <trip id="veh118" depart="252.03" from="184541681#3" to="1030661647" departLane="best" type="veh_passenger"/>
    <trip id="veh119" depart="254.16" from="144821732#9" to="59217019#1" departLane="best" type="veh_passenger"/>
    <trip id="veh120" depart="256.30" from="4908400#0" to="-28947684#8" departLane="best" type="veh_passenger"/>
    <trip id="veh121" depart="258.44" from="127843726#0" to="104129599#1" departLane="best" type="veh_passenger"/>
    <trip id="veh122" depart="260.57" from="-1030661651" to="30887527#2" departLane="best" type="veh_passenger" departSpeed="max"/>
    <trip id="veh123" depart="262.71" from="186952365#0" to="1030661647" departLane="best" type="veh_passenger"/>
    <trip id="veh124" depart="264.84" from="127843732#1" to="-107125059#8" departLane="best" type="veh_passenger"/>
    <trip id="veh125" depart="266.98" from="-161809912#4" to="59198110#2" departLane="best" type="veh_passenger"/>
    <trip id="veh126" depart="269.12" from="59216995#2" to="162382438#1" departLane="best" type="veh_passenger"/>
    <trip id="veh127" depart="271.25" from="-29293382#2" to="-30803182#3" departLane="best" type="veh_passenger"/>
    <trip id="veh128" depart="273.39" from="1030661649#1" to="59217008#0" departLane="best" type="veh_passenger"/>
    <trip id="veh129" depart="275.52" from="33613407#0" to="59174428#0" departLane="best" type="veh_passenger" departSpeed="max"/>
    <trip id="veh130" depart="277.66" from="-59217069#4" to="-29293345#7" departLane="best" type="veh_passenger"/>
    <trip id="veh131" depart="279.79" from="30834572" to="59198110#2" departLane="best" type="veh_passenger"/>
    <trip id="veh132" depart="281.93" from="121903989#0" to="189306943#1" departLane="best" type="veh_passenger" departSpeed="max"/>
    <trip id="veh133" depart="284.07" from="-30803060#2" to="59217085#2" departLane="best" type="veh_passenger"/>
    <trip id="veh134" depart="286.20" from="4231223#1" to="59198110#0" departLane="best" type="veh_passenger"/>
    <trip id="veh135" depart="288.34" from="-1097512813#2" to="29293382#1" departLane="best" type="veh_passenger"/>
    <trip id="veh136" depart="290.47" from="1060946258#2" to="59217085#3" departLane="best" type="veh_passenger"/>
    <trip id="veh137" depart="292.61" from="33613407#1" to="59174474#1" departLane="best" type="veh_passenger"/>
    <trip id="veh138" depart="294.75" from="4231223#1" to="1030661648#3" departLane="best" type="veh_passenger"/>
    <trip id="veh139" depart="296.88" from="30887527#1" to="-29293357#3" departLane="best" type="veh_passenger"/>
    <trip id="veh140" depart="299.02" from="59174427" to="571143714#3" departLane="best" type="veh_passenger" departSpeed="max"/>
    <trip id="veh141" depart="301.15" from="-59216995#1" to="42710191#1" departLane="best" type="veh_passenger"/>
    <trip id="veh142" depart="303.29" from="128490592#7" to="1060946273#0" departLane="best" type="veh_passenger"/>
    <trip id="veh143" depart="305.42" from="33613407#0" to="-59217101#1" departLane="best" type="veh_passenger" departSpeed="max"/>
    <trip id="veh144" depart="307.56" from="-1097512813#0" to="-59216995#2" departLane="best" type="veh_passenger"/>
    <trip id="veh145" depart="309.70" from="1059317065#5" to="59174474#1" departLane="best" type="veh_passenger"/>
    <trip id="veh146" depart="311.83" from="707995792#3" to="104129599#1" departLane="best" type="veh_passenger"/>
    <trip id="veh147" depart="313.97" from="194267354#0" to="127843727" departLane="best" type="veh_passenger" departSpeed="max"/>
    <trip id="veh148" depart="316.10" from="838429000#0" to="162382435#0" departLane="best" type="veh_passenger" departSpeed="max"/>
    <trip id="veh149" depart="318.24" from="59217101#1" to="-29293382#3" departLane="best" type="veh_passenger"/>
    <trip id="veh150" depart="320.38" from="723617931#0" to="-59181738#0" departLane="best" type="veh_passenger"/>
    <trip id="veh151" depart="322.51" from="-24804550#0" to="127844300#9" departLane="best" type="veh_passenger"/>
    <trip id="veh152" depart="324.65" from="29293345#1" to="1067065527#1" departLane="best" type="veh_passenger"/>
    <trip id="veh153" depart="326.78" from="173342299#2" to="146586684#4" departLane="best" type="veh_passenger"/>
    <trip id="veh154" depart="328.92" from="1181110238" to="173319136#3" departLane="best" type="veh_passenger"/>
    <trip id="veh155" depart="331.05" from="-59217077#2" to="28947684#16" departLane="best" type="veh_passenger"/>
    <trip id="veh156" depart="333.19" from="-1030661647" to="59217077#0" departLane="best" type="veh_passenger" departSpeed="max"/>
    <trip id="veh157" depart="335.33" from="146689778#2" to="29293345#2" departLane="best" type="veh_passenger"/>
    <trip id="veh158" depart="337.46" from="29293372#0" to="237008293#7" departLane="best" type="veh_passenger"/>
    <trip id="veh159" depart="339.60" from="1115849033#1" to="-186952365#3" departLane="best" type="veh_passenger"/>
    <trip id="veh160" depart="341.73" from="226280292#0" to="107125059#6" departLane="best" type="veh_passenger"/>
    <trip id="veh161" depart="343.87" from="104129598#4" to="571143520#6" departLane="best" type="veh_passenger"/>
    <trip id="veh162" depart="346.01" from="28947684#10" to="1060946258#2" departLane="best" type="veh_passenger"/>
    <trip id="veh163" depart="348.14" from="1030661649#4" to="127843743#4" departLane="best" type="veh_passenger"/>
    <trip id="veh164" depart="350.28" from="121903989#0" to="1059317065#4" departLane="best" type="veh_passenger" departSpeed="max"/>
    <trip id="veh165" depart="352.41" from="-29293345#0" to="127843745#3" departLane="best" type="veh_passenger"/>
    <trip id="veh166" depart="354.55" from="59217114#1" to="237008295#4" departLane="best" type="veh_passenger"/>
    <trip id="veh167" depart="356.68" from="59216995#1" to="186952365#3" departLane="best" type="veh_passenger"/>
    <trip id="veh168" depart="358.82" from="1015784060#0" to="168609619#0" departLane="best" type="veh_passenger"/>
    <trip id="veh169" depart="360.96" from="127843742" to="173323014#1" departLane="best" type="veh_passenger"/>
    <trip id="veh170" depart="363.09" from="127844300#0" to="-59217069#0" departLane="best" type="veh_passenger"/>
    <trip id="veh171" depart="365.23" from="144821732#1" to="59217015#2" departLane="best" type="veh_passenger" departSpeed="max"/>
    <trip id="veh172" depart="367.36" from="33613407#0" to="-59181723#0" departLane="best" type="veh_passenger" departSpeed="max"/>
    <trip id="veh173" depart="369.50" from="-173229517#2" to="146586725#4" departLane="best" type="veh_passenger"/>
    <trip id="veh174" depart="371.64" from="184540883#2" to="1097512813#1" departLane="best" type="veh_passenger"/>
    <trip id="veh175" depart="373.77" from="42675659#0" to="297688543#2" departLane="best" type="veh_passenger"/>
    <trip id="veh176" depart="375.91" from="237008293#0" to="-59217085#2" departLane="best" type="veh_passenger"/>
    <trip id="veh177" depart="378.04" from="-59181723#1" to="-127843743#4" departLane="best" type="veh_passenger"/>
    <trip id="veh178" depart="380.18" from="-59217054#0" to="146582102#11" departLane="best" type="veh_passenger"/>
    <trip id="veh179" depart="382.31" from="571143520#1" to="-216956586#0" departLane="best" type="veh_passenger"/>
    <trip id="veh180" depart="384.45" from="127843403#4" to="195186214#3" departLane="best" type="veh_passenger"/>
    <trip id="veh181" depart="386.59" from="146582102#5" to="-8365687#6" departLane="best" type="veh_passenger"/>
    <trip id="veh182" depart="388.72" from="195186214#3" to="-107125059#1" departLane="best" type="veh_passenger"/>
    <trip id="veh183" depart="390.86" from="-24476173#2" to="127844297#1" departLane="best" type="veh_passenger"/>
    <trip id="veh184" depart="392.99" from="-42675707" to="700759986#2" departLane="best" type="veh_passenger"/>
    <trip id="veh185" depart="395.13" from="146586683#2" to="-161809912#6" departLane="best" type="veh_passenger"/>
    <trip id="veh186" depart="397.27" from="-59217069#3" to="571143520#6" departLane="best" type="veh_passenger"/>
    <trip id="veh187" depart="399.40" from="128490592#4" to="42673840" departLane="best" type="veh_passenger"/>
    <trip id="veh188" depart="401.54" from="173319136#0" to="614213874#0" departLane="best" type="veh_passenger" departSpeed="max"/>
    <trip id="veh189" depart="403.67" from="59181738#0" to="184541681#5" departLane="best" type="veh_passenger"/>
    <trip id="veh190" depart="405.81" from="28947684#1" to="146586683#7" departLane="best" type="veh_passenger"/>
    <trip id="veh191" depart="407.94" from="42710191#0" to="168609619#0" departLane="best" type="veh_passenger"/>
    <trip id="veh192" depart="410.08" from="59198110#1" to="29309201#3" departLane="best" type="veh_passenger"/>
    <trip id="veh193" depart="412.22" from="144821732#1" to="1015784061#0" departLane="best" type="veh_passenger" departSpeed="max"/>
    <trip id="veh194" depart="414.35" from="-59217069#0" to="225932290#1" departLane="best" type="veh_passenger"/>
    <trip id="veh195" depart="416.49" from="30803182#0" to="146612944#5" departLane="best" type="veh_passenger" departSpeed="max"/>
    <trip id="veh196" depart="418.62" from="-161809912#8" to="1055591506#1" departLane="best" type="veh_passenger"/>
    <trip id="veh197" depart="420.76" from="-609879682#2" to="1070838875#1" departLane="best" type="veh_passenger" departSpeed="max"/>
    <trip id="veh198" depart="422.90" from="149216901#2" to="-42675659#1" departLane="best" type="veh_passenger"/>
    <trip id="veh199" depart="425.03" from="-59217015#2" to="24476173#3" departLane="best" type="veh_passenger" departSpeed="max"/>
    <trip id="veh200" depart="427.17" from="24476173#1" to="-173229518#2" departLane="best" type="veh_passenger"/>
    <trip id="veh201" depart="429.30" from="121903989#0" to="162382435#2" departLane="best" type="veh_passenger" departSpeed="max"/>
    <trip id="veh202" depart="431.44" from="127843403#7" to="-59217024#0" departLane="best" type="veh_passenger"/>
    <trip id="veh203" depart="433.57" from="127843506#4" to="59217019#0" departLane="best" type="veh_passenger"/>
    <trip id="veh204" depart="435.71" from="571143520#6" to="30803182#8" departLane="best" type="veh_passenger"/>
    <trip id="veh205" depart="437.85" from="1163031543#3" to="-107125059#2" departLane="best" type="veh_passenger"/>
    <trip id="veh206" depart="439.98" from="1070838875#1" to="297688543#2" departLane="best" type="veh_passenger"/>
    <trip id="veh207" depart="442.12" from="571143520#3" to="675930560#3" departLane="best" type="veh_passenger"/>
    <trip id="veh208" depart="444.25" from="127843506#12" to="29309201#3" departLane="best" type="veh_passenger"/>
    <trip id="veh209" depart="446.39" from="151018656#0" to="184540879#3" departLane="best" type="veh_passenger" departSpeed="max"/>
    <trip id="veh210" depart="448.53" from="-59216992#1" to="-59217073#3" departLane="best" type="veh_passenger"/>
    <trip id="veh211" depart="450.66" from="127843745#0" to="-127844311#4" departLane="best" type="veh_passenger"/>
    <trip id="veh212" depart="452.80" from="1060946273#0" to="237008295#5" departLane="best" type="veh_passenger"/>
    <trip id="veh213" depart="454.93" from="121903989#0" to="-59174472#0" departLane="best" type="veh_passenger" departSpeed="max"/>
    <trip id="veh214" depart="457.07" from="1363804678" to="-30803182#3" departLane="best" type="veh_passenger"/>
    <trip id="veh215" depart="459.20" from="175598146#0" to="-127844311#1" departLane="best" type="veh_passenger"/>
    <trip id="veh216" depart="461.34" from="121782621#1" to="173229518#6" departLane="best" type="veh_passenger"/>
    <trip id="veh217" depart="463.48" from="-1209463472#0" to="226280292#2" departLane="best" type="veh_passenger"/>
    <trip id="veh218" depart="465.61" from="-1431673174#0" to="121782621#4" departLane="best" type="veh_passenger"/>
    <trip id="veh219" depart="467.75" from="-59198110#2" to="107125059#1" departLane="best" type="veh_passenger" departSpeed="max"/>
    <trip id="veh220" depart="469.88" from="30042275" to="121782621#4" departLane="best" type="veh_passenger"/>
    <trip id="veh221" depart="472.02" from="-59217073#2" to="-24804550#2" departLane="best" type="veh_passenger"/>
    <trip id="veh222" depart="474.16" from="-107125059#3" to="162382435#1" departLane="best" type="veh_passenger"/>
    <trip id="veh223" depart="476.29" from="986647858#1" to="1140792815" departLane="best" type="veh_passenger"/>
    <trip id="veh224" depart="478.43" from="195186213#0" to="30042275" departLane="best" type="veh_passenger"/>
    <trip id="veh225" depart="480.56" from="614213874#0" to="-59217015#0" departLane="best" type="veh_passenger"/>
    <trip id="veh226" depart="482.70" from="-107125059#4" to="-42748070" departLane="best" type="veh_passenger"/>
    <trip id="veh227" depart="484.83" from="-28947684#9" to="237008293#7" departLane="best" type="veh_passenger"/>
    <trip id="veh228" depart="486.97" from="162382436#0" to="-59217073#1" departLane="best" type="veh_passenger" departSpeed="max"/>
    <trip id="veh229" depart="489.11" from="24269456#0" to="30834547#2" departLane="best" type="veh_passenger" departSpeed="max"/>
    <trip id="veh230" depart="491.24" from="-368736550#1" to="184540883#0" departLane="best" type="veh_passenger" departSpeed="max"/>
    <trip id="veh231" depart="493.38" from="42675659#1" to="707995791#2" departLane="best" type="veh_passenger"/>
    <trip id="veh232" depart="495.51" from="-24476173#4" to="-127843743#6" departLane="best" type="veh_passenger"/>
    <trip id="veh233" depart="497.65" from="104129598#0" to="237008295#4" departLane="best" type="veh_passenger" departSpeed="max"/>
    <trip id="veh234" depart="499.79" from="685281062#0" to="127843506#6" departLane="best" type="veh_passenger"/>
    <trip id="veh235" depart="501.92" from="24804550#3" to="-24476173#0" departLane="best" type="veh_passenger"/>
    <trip id="veh236" depart="504.06" from="237008295#5" to="195186214#1" departLane="best" type="veh_passenger"/>
    <trip id="veh237" depart="506.19" from="127843732#1" to="1209463472#1" departLane="best" type="veh_passenger"/>
    <trip id="veh238" depart="508.33" from="146582103#7" to="1115849040" departLane="best" type="veh_passenger"/>
    <trip id="veh239" depart="510.47" from="571143520#1" to="478326320" departLane="best" type="veh_passenger"/>
    <trip id="veh240" depart="512.60" from="-24476173#0" to="700759986#5" departLane="best" type="veh_passenger"/>
    <trip id="veh241" depart="514.74" from="184541681#5" to="478893584" departLane="best" type="veh_passenger"/>
    <trip id="veh242" depart="516.87" from="24476173#2" to="127844301#0" departLane="best" type="veh_passenger"/>
    <trip id="veh243" depart="519.01" from="29293345#5" to="707995792#1" departLane="best" type="veh_passenger"/>