<?xml version="1.0" encoding="UTF-8"?>
<routes xmlns:xsi="http://www.w3.org/2001/XMLSchema-instance" xsi:noNamespaceSchemaLocation="http://sumo.dlr.de/xsd/routes_file.xsd">

    <vType id="car" accel="2.6" decel="4.5" sigma="0.5" length="5" maxSpeed="13.89"/>
    <vType id="truck" accel="1.5" decel="3.5" sigma="0.5" length="10" maxSpeed="11.11"/>

    <!-- Routes through center junction A1 -->
    <route id="north_south" edges="B2A1 A1B4"/>
    <route id="south_north" edges="B4A1 A1B2"/>
    <route id="east_west" edges="B1A1 A1B3"/>
    <route id="west_east" edges="B3A1 A1B1"/>

    <!-- Traffic flows -->
    <flow id="flow_ns" type="car" route="north_south" begin="0" end="3600" vehsPerHour="400" departSpeed="max"/>
    <flow id="flow_sn" type="car" route="south_north" begin="0" end="3600" vehsPerHour="350" departSpeed="max"/>
    <flow id="flow_ew" type="car" route="east_west" begin="0" end="3600" vehsPerHour="300" departSpeed="max"/>
    <flow id="flow_we" type="car" route="west_east" begin="0" end="3600" vehsPerHour="250" departSpeed="max"/>

</routes>
