<?xml version="1.0" encoding="UTF-8"?>

<!-- Rescaled by rescale_trips.py: period=1.60s, 500 vehicles in first 800s -->

<routes xmlns:xsi="http://www.w3.org/2001/XMLSchema-instance" xsi:noNamespaceSchemaLocation="http://sumo.dlr.de/xsd/routes_file.xsd">
    <vType id="veh_passenger" vClass="passenger" />
    <trip id="0" depart="0.00" from="-369837723#10" to="-369837708#1" departLane="best" type="veh_passenger" />
    <trip id="1" depart="1.60" from="235103510#11" to="189447806#1" departLane="best" type="veh_passenger" />
    <trip id="2" depart="3.20" from="423737613#2" to="-1125332263#1" departLane="best" type="veh_passenger" />
    <trip id="3" depart="4.80" from="-423779397#2" to="-1056587309#0" departLane="best" type="veh_passenger" />
    <trip id="4" depart="6.40" from="-168928124#12" to="1081984267#0" departLane="best" type="veh_passenger" />
    <trip id="5" depart="8.00" from="-1056582745#0" to="-189447957#4" departLane="best" type="veh_passenger" />
    <trip id="6" depart="9.60" from="1245213706#0" to="1185434337" departLane="best" type="veh_passenger" departSpeed="max" />
    <trip id="7" depart="11.20" from="-168951941#1" to="1244504773#0" departLane="best" type="veh_passenger" />
    <trip id="8" depart="12.80" from="423280944#13" to="-1040121954#1" departLane="best" type="veh_passenger" />
    <trip id="9" depart="14.40" from="408602403#0" to="257762098#8" departLane="best" type="veh_passenger" />
    <trip id="10" depart="16.00" from="-423590895#7" to="-1428511389#1" departLane="best" type="veh_passenger" />
    <trip id="11" depart="17.60" from="717155783" to="-423754672" departLane="best" type="veh_passenger" />
    <trip id="12" depart="19.20" from="-1082059018" to="-1185438185#0" departLane="best" type="veh_passenger" departSpeed="max" />
    <trip id="13" depart="20.80" from="423590912#6" to="1275468136#1" departLane="best" type="veh_passenger" />
    <trip id="14" depart="22.40" from="408838134#0" to="369837700#2" departLane="best" type="veh_passenger" departSpeed="max" />
    <trip id="15" depart="24.00" from="1056585524" to="774647979#1" departLane="best" type="veh_passenger" departSpeed="max" />
    <trip id="16" depart="25.60" from="-423607588#1" to="1190366167#1" departLane="best" type="veh_passenger" departSpeed="max" />
    <trip id="17" depart="27.20" from="423391655" to="1311739436" departLane="best" type="veh_passenger" />
    <trip id="18" depart="28.80" from="423591258#3" to="1238475946" departLane="best" type="veh_passenger" />
    <trip id="19" depart="30.40" from="189131397#12" to="-1081105658#0" departLane="best" type="veh_passenger" />
    <trip id="20" depart="32.00" from="-189131373#5" to="-423590921#6" departLane="best" type="veh_passenger" />
    <trip id="21" depart="33.60" from="-1081721431" to="-374688943#0" departLane="best" type="veh_passenger" departSpeed="max" />
    <trip id="22" depart="35.20" from="-1082233885" to="-423400663#0" departLane="best" type="veh_passenger" departSpeed="max" />
    <trip id="23" depart="36.80" from="1243973296#0" to="-451098562#5" departLane="best" type="veh_passenger" departSpeed="max" />
    <trip id="24" depart="38.40" from="-423591329#1" to="-343503829#6" departLane="best" type="veh_passenger" />
    <trip id="25" depart="40.00" from="-369837699#0" to="682348355#7" departLane="best" type="veh_passenger" />
    <trip id="26" depart="41.60" from="1244556309#1" to="1306311280" departLane="best" type="veh_passenger" />
    <trip id="27" depart="43.20" from="-1244553759#1" to="369837698#1" departLane="best" type="veh_passenger" departSpeed="max" />
    <trip id="28" depart="44.80" from="-1244054812" to="-715646316#1" departLane="best" type="veh_passenger" />
    <trip id="29" depart="46.40" from="875114549" to="1428980099#2" departLane="best" type="veh_passenger" departSpeed="max" />
    <trip id="30" depart="48.00" from="1081107626#1" to="202969533#1" departLane="best" type="veh_passenger" />
    <trip id="31" depart="49.60" from="423530938#1" to="423283928#1" departLane="best" type="veh_passenger" />
    <trip id="32" depart="51.20" from="-189289359" to="-1056588303" departLane="best" type="veh_passenger" />
    <trip id="33" depart="52.80" from="-423391565#1" to="-423391625#0" departLane="best" type="veh_passenger" departSpeed="max" />
    <trip id="34" depart="54.40" from="-1428980100#1" to="715669944#1" departLane="best" type="veh_passenger" />
    <trip id="35" depart="56.00" from="423607615" to="-423607602#0" departLane="best" type="veh_passenger" />
    <trip id="36" depart="57.60" from="1255589759" to="-772396770#0" departLane="best" type="veh_passenger" />
    <trip id="37" depart="59.20" from="423779469" to="1058039133#4" departLane="best" type="veh_passenger" departSpeed="max" />
    <trip id="38" depart="60.80" from="-369835649#12" to="-410975171#3" departLane="best" type="veh_passenger" />
    <trip id="39" depart="62.40" from="1081309638#2" to="-423344307#0" departLane="best" type="veh_passenger" />
    <trip id="40" depart="64.00" from="1082229001#0" to="423779410" departLane="best" type="veh_passenger" departSpeed="max" />
    <trip id="41" depart="65.60" from="-423737624#5" to="-369837698#11" departLane="best" type="veh_passenger" />
    <trip id="42" depart="67.20" from="953265988#1" to="1082054987#1" departLane="best" type="veh_passenger" />
    <trip id="43" depart="68.80" from="-1082059010#1" to="-1081105919#4" departLane="best" type="veh_passenger" departSpeed="max" />
    <trip id="44" depart="70.40" from="-1120500717#3" to="1425310877" departLane="best" type="veh_passenger" />
    <trip id="45" depart="72.00" from="374689131" to="103172948#7" departLane="best" type="veh_passenger" />
    <trip id="46" depart="73.60" from="-1081314491" to="-717054146#0" departLane="best" type="veh_passenger" departSpeed="max" />
    <trip id="47" depart="75.20" from="953260272#3" to="1120500717#1" departLane="best" type="veh_passenger" />
    <trip id="48" depart="76.80" from="773120298#6" to="423627841#6" departLane="best" type="veh_passenger" />
    <trip id="49" depart="78.40" from="-1042838384" to="36801846#1" departLane="best" type="veh_passenger" />
    <trip id="50" depart="80.00" from="1428954063#3" to="1136945264#2" departLane="best" type="veh_passenger" />
    <trip id="51" depart="81.60" from="-369837698#6" to="1428996008#1" departLane="best" type="veh_passenger" />
    <trip id="52" depart="83.20" from="-1123259842#2" to="1053499501#1" departLane="best" type="veh_passenger" departSpeed="max" />
    <trip id="53" depart="84.80" from="-682348188#6" to="717467043#6" departLane="best" type="veh_passenger" />
    <trip id="54" depart="86.40" from="423607601" to="-423391552#7" departLane="best" type="veh_passenger" departSpeed="max" />
    <trip id="55" depart="88.00" from="-952568329#0" to="-169033815#4" departLane="best" type="veh_passenger" />
    <trip id="56" depart="89.60" from="423779442#3" to="423737610#0" departLane="best" type="veh_passenger" />
    <trip id="57" depart="91.20" from="-423280944#7" to="1428966638" departLane="best" type="veh_passenger" />
    <trip id="58" depart="92.80" from="1186660161#0" to="-1381040679#0" departLane="best" type="veh_passenger" />
    <trip id="59" depart="94.40" from="36801841#1-AddedOffRampEdge" to="1150130318#0" departLane="best" type="veh_passenger" />
    <trip id="60" depart="96.00" from="369837718#10" to="1122600929#1" departLane="best" type="veh_passenger" />
    <trip id="61" depart="97.60" from="-1012414570#0" to="-423627883#0" departLane="best" type="veh_passenger" />
    <trip id="62" depart="99.20" from="-1056582222#1" to="608989233#1" departLane="best" type="veh_passenger" />
    <trip id="63" depart="100.80" from="423607646#3" to="423591218#1" departLane="best" type="veh_passenger" />
    <trip id="64" depart="102.40" from="-423293430" to="-1081320989#0" departLane="best" type="veh_passenger" departSpeed="max" />
    <trip id="65" depart="104.00" from="423607639#1" to="717090090" departLane="best" type="veh_passenger" />
    <trip id="66" depart="105.60" from="-1081984263#1" to="1081317172" departLane="best" type="veh_passenger" departSpeed="max" />
    <trip id="67" depart="107.20" from="-1081320989#1" to="39451643#6" departLane="best" type="veh_passenger" departSpeed="max" />
    <trip id="68" depart="108.80" from="36804381#5" to="-1244504296#0" departLane="best" type="veh_passenger" />
    <trip id="69" depart="110.40" from="-718764853#0" to="1187835577#1" departLane="best" type="veh_passenger" />
    <trip id="70" depart="112.00" from="-369835649#16" to="423737623#1" departLane="best" type="veh_passenger" />
    <trip id="71" depart="113.60" from="-423779401#1" to="-343506908#3" departLane="best" type="veh_passenger" />
    <trip id="72" depart="115.20" from="1056588267#1" to="369837701#2" departLane="best" type="veh_passenger" />
    <trip id="73" depart="116.80" from="-1428515096#5" to="-423607545#0" departLane="best" type="veh_passenger" />
    <trip id="74" depart="118.40" from="952604550#3" to="168951942" departLane="best" type="veh_passenger" />
    <trip id="75" depart="120.00" from="-423867561" to="1082229008#1" departLane="best" type="veh_passenger" departSpeed="max" />
    <trip id="76" depart="121.60" from="-1171067986#1" to="-369837715#13" departLane="best" type="veh_passenger" departSpeed="max" />
    <trip id="77" depart="123.20" from="-423530906" to="1244492617" departLane="best" type="veh_passenger" departSpeed="max" />
    <trip id="78" depart="124.80" from="-189289371#1" to="-369837701#6" departLane="best" type="veh_passenger" />
    <trip id="79" depart="126.40" from="-1081327390" to="1428542844#7" departLane="best" type="veh_passenger" departSpeed="max" />
    <trip id="80" depart="128.00" from="-189289356#1" to="423779515#0" departLane="best" type="veh_passenger" />
    <trip id="81" depart="129.60" from="423591219#0" to="-1082054984#0" departLane="best" type="veh_passenger" departSpeed="max" />
    <trip id="82" depart="131.20" from="-189447730#3" to="189430936#1" departLane="best" type="veh_passenger" />
    <trip id="83" depart="132.80" from="-1429146381#3" to="-1244535039#1" departLane="best" type="veh_passenger" />
    <trip id="84" depart="134.40" from="56723584#15" to="1236756579" departLane="best" type="veh_passenger" />
    <trip id="85" depart="136.00" from="-717499048" to="423391560#13" departLane="best" type="veh_passenger" />
    <trip id="86" depart="137.60" from="410975171#3" to="-189447730#0" departLane="best" type="veh_passenger" />
    <trip id="87" depart="139.20" from="-1082227006#1" to="1040796696#1" departLane="best" type="veh_passenger" />
    <trip id="88" depart="140.80" from="-423779401#8" to="1079939692" departLane="best" type="veh_passenger" />
    <trip id="89" depart="142.40" from="202969533#18" to="189447717#0" departLane="best" type="veh_passenger" />
    <trip id="90" depart="144.00" from="782404744#5" to="-1186659655" departLane="best" type="veh_passenger" />
    <trip id="91" depart="145.60" from="-423754632#3" to="-423754745" departLane="best" type="veh_passenger" />
    <trip id="92" depart="147.20" from="423591258#2" to="-423280944#1" departLane="best" type="veh_passenger" />
    <trip id="93" depart="148.80" from="-1311206001" to="1056583184" departLane="best" type="veh_passenger" />
    <trip id="94" depart="150.40" from="-423779397#10" to="-423400676" departLane="best" type="veh_passenger" departSpeed="max" />
    <trip id="95" depart="152.00" from="-203569946#0" to="532739771#0" departLane="best" type="veh_passenger" />
    <trip id="96" depart="153.60" from="-451099396" to="423627851" departLane="best" type="veh_passenger" departSpeed="max" />
    <trip id="97" depart="155.20" from="1079934642#0" to="-1081305216" departLane="best" type="veh_passenger" />
    <trip id="98" depart="156.80" from="977466314" to="423591271#3" departLane="best" type="veh_passenger" />
    <trip id="99" depart="158.40" from="772396770#6" to="58360987#2" departLane="best" type="veh_passenger" />
    <trip id="100" depart="160.00" from="-773833731#0" to="-369835476#4" departLane="best" type="veh_passenger" />
    <trip id="101" depart="161.60" from="-423737632#2" to="-1081321766#0" departLane="best" type="veh_passenger" />
    <trip id="102" depart="163.20" from="-423607592#2" to="815127176" departLane="best" type="veh_passenger" departSpeed="max" />
    <trip id="103" depart="164.80" from="-369835649#2" to="423391556#6" departLane="best" type="veh_passenger" />
    <trip id="104" depart="166.40" from="-682895480#2" to="103172954#1" departLane="best" type="veh_passenger" />
    <trip id="105" depart="168.00" from="717155785#0" to="952608065#2" departLane="best" type="veh_passenger" />
    <trip id="106" depart="169.60" from="1081105919#1" to="36167773#1" departLane="best" type="veh_passenger" />
    <trip id="107" depart="171.20" from="-1238475945" to="-423591194#2" departLane="best" type="veh_passenger" />
    <trip id="108" depart="172.80" from="772396770#0" to="1242790509" departLane="best" type="veh_passenger" departSpeed="max" />
    <trip id="109" depart="174.40" from="1056589522" to="374688977#4" departLane="best" type="veh_passenger" />
    <trip id="110" depart="176.00" from="-1081305214" to="1244005428" departLane="best" type="veh_passenger" departSpeed="max" />
    <trip id="111" depart="177.60" from="-952595752" to="423607612#1" departLane="best" type="veh_passenger" departSpeed="max" />
    <trip id="112" depart="179.20" from="-1242796949" to="759789702#0" departLane="best" type="veh_passenger" />
    <trip id="113" depart="180.80" from="-1081725921#1" to="-189430901#2" departLane="best" type="veh_passenger" />
    <trip id="114" depart="182.40" from="1122615234" to="189447794#1" departLane="best" type="veh_passenger" departSpeed="max" />
    <trip id="115" depart="184.00" from="-189447695#3" to="-1242731855" departLane="best" type="veh_passenger" />
    <trip id="116" depart="185.60" from="423737591#0" to="-408838134#0" departLane="best" type="veh_passenger" departSpeed="max" />
    <trip id="117" depart="187.20" from="1122615232#0" to="1311964498" departLane="best" type="veh_passenger" departSpeed="max" />
    <trip id="118" depart="188.80" from="-423754791#2" to="1244004944#0" departLane="best" type="veh_passenger" />
    <trip id="119" depart="190.40" from="1056581923#1" to="682347517#0" departLane="best" type="veh_passenger" />
    <trip id="120" depart="192.00" from="-1428926142" to="35823180#2" departLane="best" type="veh_passenger" />
    <trip id="121" depart="193.60" from="-189447738" to="-772396770#4" departLane="best" type="veh_passenger" departSpeed="max" />
    <trip id="122" depart="195.20" from="1425310869#16" to="-423591241#2" departLane="best" type="veh_passenger" />
    <trip id="123" depart="196.80" from="-423391583" to="374689143#2" departLane="best" type="veh_passenger" departSpeed="max" />
    <trip id="124" depart="198.40" from="-1081329786#1" to="1056590761#1" departLane="best" type="veh_passenger" departSpeed="max" />
    <trip id="125" depart="200.00" from="977466312#26" to="953260272#2" departLane="best" type="veh_passenger" />
    <trip id="126" depart="201.60" from="-1081329792" to="-369835470#0" departLane="best" type="veh_passenger" />
    <trip id="127" depart="203.20" from="-369835649#2" to="661755672" departLane="best" type="veh_passenger" />
    <trip id="128" depart="204.80" from="423618492#0" to="423754676" departLane="best" type="veh_passenger" departSpeed="max" />
    <trip id="129" depart="206.40" from="-423591325#9" to="-1428629922#6" departLane="best" type="veh_passenger" departSpeed="max" />
    <trip id="130" depart="208.00" from="423391729#1" to="313905500#0" departLane="best" type="veh_passenger" />
    <trip id="131" depart="209.60" from="1190376364#1" to="875092398#2" departLane="best" type="veh_passenger" />
    <trip id="132" depart="211.20" from="1255237002" to="-1040429414#2" departLane="best" type="veh_passenger" />
    <trip id="133" depart="212.80" from="423283929#0" to="-423591227#1" departLane="best" type="veh_passenger" />
    <trip id="134" depart="214.40" from="1311203738#2" to="705056990#7" departLane="best" type="veh_passenger" />
    <trip id="135" depart="216.00" from="-1203405285#1" to="-1238238680#2" departLane="best" type="veh_passenger" />
    <trip id="136" depart="217.60" from="-1118272424#2" to="1190967211#2" departLane="best" type="veh_passenger" />
    <trip id="137" depart="219.20" from="-369837715#2" to="1283135043#7" departLane="best" type="veh_passenger" />
    <trip id="138" depart="220.80" from="189447730#0" to="-207565747#23" departLane="best" type="veh_passenger" departSpeed="max" />
    <trip id="139" depart="222.40" from="1243970306#0" to="-423391555#4" departLane="best" type="veh_passenger" departSpeed="max" />
    <trip id="140" depart="224.00" from="-774638593#5" to="423779514#0" departLane="best" type="veh_passenger" departSpeed="max" />
    <trip id="141" depart="225.60" from="423590906#4" to="-1170526498" departLane="best" type="veh_passenger" />
    <trip id="142" depart="227.20" from="-423779401#8" to="-423400629#2" departLane="best" type="veh_passenger" />
    <trip id="143" depart="228.80" from="-103172954#23" to="423281053#9" departLane="best" type="veh_passenger" />
    <trip id="144" depart="230.40" from="1244002221#0" to="-423293470#0" departLane="best" type="veh_passenger" />
    <trip id="145" depart="232.00" from="257763277#0" to="1189338382" departLane="best" type="veh_passenger" departSpeed="max" />
    <trip id="146" depart="233.60" from="-423779443#3" to="-1040505179#1" departLane="best" type="veh_passenger" />
    <trip id="147" depart="235.20" from="-1081364942#1" to="423754715" departLane="best" type="veh_passenger" />
    <trip id="148" depart="236.80" from="423754775#0" to="1185438184#1" departLane="best" type="veh_passenger" departSpeed="max" />
    <trip id="149" depart="238.40" from="423391739#3" to="1243995888#4" departLane="best" type="veh_passenger" />
    <trip id="150" depart="240.00" from="-1236550874" to="-1244459179" departLane="best" type="veh_passenger" />
    <trip id="151" depart="241.60" from="-423293435" to="423779437" departLane="best" type="veh_passenger" />
    <trip id="152" depart="243.20" from="392064534#4" to="423627841#4" departLane="best" type="veh_passenger" />
    <trip id="153" depart="244.80" from="423754700#2" to="-343503830#9" departLane="best" type="veh_passenger" />
    <trip id="154" depart="246.40" from="-203569944#1" to="-1203405287" departLane="best" type="veh_passenger" />
    <trip id="155" depart="248.00" from="369837720#4" to="423754724#0" departLane="best" type="veh_passenger" />
    <trip id="156" depart="249.60" from="-423754682" to="1376112028" departLane="best" type="veh_passenger" departSpeed="max" />
    <trip id="157" depart="251.20" from="-1238289074" to="608989233#7" departLane="best" type="veh_passenger" />
    <trip id="158" depart="252.80" from="423591292#3" to="776552087" departLane="best" type="veh_passenger" />
    <trip id="159" depart="254.40" from="423280996" to="423754699" departLane="best" type="veh_passenger" departSpeed="max" />
    <trip id="160" depart="256.00" from="-1056582723#0" to="369837719#13" departLane="best" type="veh_passenger" />
    <trip id="161" depart="257.60" from="-423400669#1" to="623832915#6" departLane="best" type="veh_passenger" departSpeed="max" />
    <trip id="162" depart="259.20" from="39451656#3" to="423627890#2" departLane="best" type="veh_passenger" />
    <trip id="163" depart="260.80" from="423280996" to="-423391582" departLane="best" type="veh_passenger" departSpeed="max" />
    <trip id="164" depart="262.40" from="374688947#8" to="-1211563462" departLane="best" type="veh_passenger" />
    <trip id="165" depart="264.00" from="423607525" to="423627837#0" departLane="best" type="veh_passenger" />
    <trip id="166" depart="265.60" from="-168951958#7" to="423590921#1" departLane="best" type="veh_passenger" />
    <trip id="167" depart="267.20" from="-715646317#1" to="-423591311#5" departLane="best" type="veh_passenger" departSpeed="max" />
    <trip id="168" depart="268.80" from="380700998#17" to="-369837723#7" departLane="best" type="veh_passenger" />
    <trip id="169" depart="270.40" from="-1056582255" to="-189447804#0" departLane="best" type="veh_passenger" departSpeed="max" />
    <trip id="170" depart="272.00" from="-423400629#5" to="423627891#6" departLane="best" type="veh_passenger" />
    <trip id="171" depart="273.60" from="764071330#0" to="-423400687#1" departLane="best" type="veh_passenger" />
    <trip id="172" depart="275.20" from="1244504293#0" to="-773603310#6" departLane="best" type="veh_passenger" departSpeed="max" />
    <trip id="173" depart="276.80" from="782400648#1" to="1136379366" departLane="best" type="veh_passenger" />
    <trip id="174" depart="278.40" from="59035954#10-AddedOnRampEdge" to="-1238238680#0" departLane="best" type="veh_passenger" />
    <trip id="175" depart="280.00" from="773114851#3" to="-169033815#2" departLane="best" type="veh_passenger" />
    <trip id="176" depart="281.60" from="718279137#1" to="-423391562#2" departLane="best" type="veh_passenger" />
    <trip id="177" depart="283.20" from="-1120023916" to="1051441315#0" departLane="best" type="veh_passenger" />
    <trip id="178" depart="284.80" from="189447982#1" to="-423607592#0" departLane="best" type="veh_passenger" />
    <trip id="179" depart="286.40" from="1184970104#1" to="1082059014#1" departLane="best" type="veh_passenger" />
    <trip id="180" depart="288.00" from="-423607668#0" to="1238288378#0" departLane="best" type="veh_passenger" />
    <trip id="181" depart="289.60" from="-279990638#1" to="35306917#2" departLane="best" type="veh_passenger" />
    <trip id="182" depart="291.20" from="-103172942#6" to="56723584#34" departLane="best" type="veh_passenger" />
    <trip id="183" depart="292.80" from="1056587305#1" to="36167773#8" departLane="best" type="veh_passenger" />
    <trip id="184" depart="294.40" from="279990632#0" to="189447687#3" departLane="best" type="veh_passenger" />
    <trip id="185" depart="296.00" from="-423591273#3" to="-1082004726#0" departLane="best" type="veh_passenger" />
    <trip id="186" depart="297.60" from="1311507436" to="-423737612#1" departLane="best" type="veh_passenger" departSpeed="max" />
    <trip id="187" depart="299.20" from="-423391560#7" to="423607545#3" departLane="best" type="veh_passenger" />
    <trip id="188" depart="300.80" from="189447794#5" to="-423591254#4" departLane="best" type="veh_passenger" />
    <trip id="189" depart="302.40" from="-423293456#1" to="-875092398#0" departLane="best" type="veh_passenger" />
    <trip id="190" depart="304.00" from="-423737640#4" to="-423591186#0" departLane="best" type="veh_passenger" />
    <trip id="191" depart="305.60" from="-1186665463#1" to="1012414569#1" departLane="best" type="veh_passenger" />
    <trip id="192" depart="307.20" from="608989233#0" to="189447826#1" departLane="best" type="veh_passenger" />
    <trip id="193" depart="308.80" from="423754766#1" to="1311506084" departLane="best" type="veh_passenger" />
    <trip id="194" depart="310.40" from="-423283894#0" to="1186816514#1" departLane="best" type="veh_passenger" />
    <trip id="195" depart="312.00" from="-1012414569#1" to="-423590912#8" departLane="best" type="veh_passenger" />
    <trip id="196" depart="313.60" from="-423779482#0" to="1242796949" departLane="best" type="veh_passenger" />
    <trip id="197" depart="315.20" from="1255545849" to="1078191849" departLane="best" type="veh_passenger" />
    <trip id="198" depart="316.80" from="-449578284#1" to="-369835476#3" departLane="best" type="veh_passenger" />
    <trip id="199" depart="318.40" from="-717545274#0" to="423779443#13" departLane="best" type="veh_passenger" />
    <trip id="200" depart="320.00" from="392064534#2" to="-150881409#9" departLane="best" type="veh_passenger" />
    <trip id="201" depart="321.60" from="-1081751327" to="1082227001" departLane="best" type="veh_passenger" departSpeed="max" />
    <trip id="202" depart="323.20" from="1238477692" to="-423754635#0" departLane="best" type="veh_passenger" />
    <trip id="203" depart="324.80" from="423283933#6" to="374689138#1" departLane="best" type="veh_passenger" />
    <trip id="204" depart="326.40" from="1425310871#0" to="-369837715#12" departLane="best" type="veh_passenger" />
    <trip id="205" depart="328.00" from="-1417137063" to="-1056582752#0" departLane="best" type="veh_passenger" departSpeed="max" />
    <trip id="206" depart="329.60" from="-189447924#7" to="1081136311#4" departLane="best" type="veh_passenger" />
    <trip id="207" depart="331.20" from="423590921#12" to="-1082064220#0" departLane="best" type="veh_passenger" />
    <trip id="208" depart="332.80" from="-423754758#2" to="1428515094#6" departLane="best" type="veh_passenger" />
    <trip id="209" depart="334.40" from="-1311739436" to="24576821#4" departLane="best" type="veh_passenger" departSpeed="max" />
    <trip id="210" depart="336.00" from="-777696676" to="-39451643#7" departLane="best" type="veh_passenger" />
    <trip id="211" depart="337.60" from="1255965437" to="-1038929944#2" departLane="best" type="veh_passenger" departSpeed="max" />
    <trip id="212" depart="339.20" from="343506908#6" to="423280961" departLane="best" type="veh_passenger" />
    <trip id="213" depart="340.80" from="-1117754460" to="1038929941#2" departLane="best" type="veh_passenger" />
    <trip id="214" depart="342.40" from="-1249868223" to="718764853#3" departLane="best" type="veh_passenger" departSpeed="max" />
    <trip id="215" depart="344.00" from="1040505168#1" to="-1081301914" departLane="best" type="veh_passenger" />
    <trip id="216" depart="345.60" from="-203569940#1" to="423607547#1" departLane="best" type="veh_passenger" departSpeed="max" />
    <trip id="217" depart="347.20" from="-705045235#2" to="423400651" departLane="best" type="veh_passenger" />
    <trip id="218" depart="348.80" from="1371993091#2" to="875114550#1" departLane="best" type="veh_passenger" />
    <trip id="219" depart="350.40" from="1123304908#0" to="717148842#1" departLane="best" type="veh_passenger" />
    <trip id="220" depart="352.00" from="423737608" to="1308182701" departLane="best" type="veh_passenger" departSpeed="max" />
    <trip id="221" depart="353.60" from="189447794#16" to="1081980688#1" departLane="best" type="veh_passenger" />
    <trip id="222" depart="355.20" from="423391676#2" to="1186816514#1" departLane="best" type="veh_passenger" />
    <trip id="223" depart="356.80" from="423754635#0" to="370186848#4" departLane="best" type="veh_passenger" departSpeed="max" />
    <trip id="224" depart="358.40" from="-718268727#2" to="-423293425#2" departLane="best" type="veh_passenger" />
    <trip id="225" depart="360.00" from="-189447978#1" to="1428963661#4" departLane="best" type="veh_passenger" />
    <trip id="226" depart="361.60" from="36804381#4" to="1082241061#1" departLane="best" type="veh_passenger" />
    <trip id="227" depart="363.20" from="1236537355" to="-423391755#1" departLane="best" type="veh_passenger" />
    <trip id="228" depart="364.80" from="-1081667261#1" to="-423590906#9" departLane="best" type="veh_passenger" />
    <trip id="229" depart="366.40" from="-369837713#1" to="-423627837#1" departLane="best" type="veh_passenger" />
    <trip id="230" depart="368.00" from="1056588295#1" to="-1249883944#0" departLane="best" type="veh_passenger" />
    <trip id="231" depart="369.60" from="-189430870#3" to="235103510#6" departLane="best" type="veh_passenger" />
    <trip id="232" depart="371.20" from="189289368#0" to="-1081717218" departLane="best" type="veh_passenger" />
    <trip id="233" depart="372.80" from="-423754693" to="1184935952#0" departLane="best" type="veh_passenger" departSpeed="max" />
    <trip id="234" depart="374.40" from="-423754769#2" to="-279990637#1" departLane="best" type="veh_passenger" departSpeed="max" />
    <trip id="235" depart="376.00" from="1082227006#0" to="24576807#1" departLane="best" type="veh_passenger" />
    <trip id="236" depart="377.60" from="423591186#1" to="408832999" departLane="best" type="veh_passenger" />
    <trip id="237" depart="379.20" from="-423591067" to="380700998#16" departLane="best" type="veh_passenger" departSpeed="max" />
    <trip id="238" depart="380.80" from="423591060#13" to="717467043#1" departLane="best" type="veh_passenger" />
    <trip id="239" depart="382.40" from="-423754789#1" to="374688973#1" departLane="best" type="veh_passenger" departSpeed="max" />
    <trip id="240" depart="384.00" from="1070111899#1" to="1255963339" departLane="best" type="veh_passenger" />
    <trip id="241" depart="385.60" from="-168951943#1" to="-369837698#6" departLane="best" type="veh_passenger" />
    <trip id="242" depart="387.20" from="-423779540#4" to="-1056585554#0" departLane="best" type="veh_passenger" departSpeed="max" />
    <trip id="243" depart="388.80" from="-423400715#1" to="189447882#1" departLane="best" type="veh_passenger" />
    <trip id="244" depart="390.40" from="-423754656" to="-1428980100#2" departLane="best" type="veh_passenger" departSpeed="max" />
    <trip id="245" depart="392.00" from="-717148840#3" to="-1244471337#1" departLane="best" type="veh_passenger" />
    <trip id="246" depart="393.60" from="1214795084" to="-1056584048" departLane="best" type="veh_passenger" departSpeed="max" />
    <trip id="247" depart="395.20" from="-423737583#0" to="1214775333#0" departLane="best" type="veh_passenger" />
    <trip id="248" depart="396.80" from="-1056582760#0" to="1429002677#1" departLane="best" type="veh_passenger" />
    <trip id="249" depart="398.40" from="-1203863445" to="1070111901#1" departLane="best" type="veh_passenger" departSpeed="max" />
    <trip id="250" depart="400.00" from="-1428996008#1" to="-423737569#0" departLane="best" type="veh_passenger" />