<?xml version="1.0" encoding="UTF-8"?>

<!-- generated on 2026-02-11 23:37:48.732862 by randomTrips.py v1_24_0+0000-b72eb3fabc8
<configuration>
    <net-file value="osm.net.xml.gz"/>
    <output-trip-file value="osm.passenger.trips.xml"/>
    <route-file value="osm.passenger.rou.xml"/>
    <prefix value="veh"/>
    <trip-attributes value="departLane='best'"/>
    <fringe-start-attributes value="departSpeed='max'"/>
    <vehicle-class value="passenger"/>
    <lanes value="True"/>
    <fringe-factor value="5"/>
    <allow-fringe.min-length value="1000.0"/>
    <edge-permission value="passenger"/>
    <via-edge-types value="highway.motorway,highway.motorway_link,highway.trunk_link,highway.primary_link,highway.secondary_link,highway.tertiary_link"/>
    <min-distance value="300.0"/>
    <min-distance.fringe value="10.0"/>
    <remove-loops value="True"/>
    <insertion-density value="12.0"/>
</configuration>
-->

<routes xmlns:xsi="http://www.w3.org/2001/XMLSchema-instance" xsi:noNamespaceSchemaLocation="http://sumo.dlr.de/xsd/routes_file.xsd">
    <vType id="veh_passenger" vClass="passenger"/>
    <trip id="veh0" depart="0.00" from="-369837723#10" to="-369837708#1" departLane='best' type="veh_passenger"/>
    <trip id="veh1" depart="0.28" from="235103510#11" to="189447806#1" departLane='best' type="veh_passenger"/>
    <trip id="veh2" depart="0.55" from="423737613#2" to="-1125332263#1" departLane='best' type="veh_passenger"/>
    <trip id="veh3" depart="0.83" from="-423779397#2" to="-1056587309#0" departLane='best' type="veh_passenger"/>
    <trip id="veh4" depart="1.10" from="-168928124#12" to="1081984267#0" departLane='best' type="veh_passenger"/>
    <trip id="veh5" depart="1.38" from="-1056582745#0" to="-189447957#4" departLane='best' type="veh_passenger"/>
    <trip id="veh6" depart="1.66" from="1245213706#0" to="1185434337" departLane='best' type="veh_passenger" departSpeed='max'/>
    <trip id="veh7" depart="1.93" from="-168951941#1" to="1244504773#0" departLane='best' type="veh_passenger"/>
    <trip id="veh8" depart="2.21" from="423280944#13" to="-1040121954#1" departLane='best' type="veh_passenger"/>
    <trip id="veh9" depart="2.48" from="408602403#0" to="257762098#8" departLane='best' type="veh_passenger"/>
    <trip id="veh10" depart="2.76" from="-423590895#7" to="-1428511389#1" departLane='best' type="veh_passenger"/>
    <trip id="veh11" depart="3.04" from="717155783" to="-423754672" departLane='best' type="veh_passenger"/>
    <trip id="veh12" depart="3.31" from="-1082059018" to="-1185438185#0" departLane='best' type="veh_passenger" departSpeed='max'/>
    <trip id="veh13" depart="3.59" from="423590912#6" to="1275468136#1" departLane='best' type="veh_passenger"/>
    <trip id="veh14" depart="3.86" from="408838134#0" to="369837700#2" departLane='best' type="veh_passenger" departSpeed='max'/>
    <trip id="veh15" depart="4.14" from="1056585524" to="774647979#1" departLane='best' type="veh_passenger" departSpeed='max'/>
    <trip id="veh16" depart="4.41" from="-423607588#1" to="1190366167#1" departLane='best' type="veh_passenger" departSpeed='max'/>
    <trip id="veh17" depart="4.69" from="423391655" to="1311739436" departLane='best' type="veh_passenger"/>
    <trip id="veh18" depart="4.97" from="423591258#3" to="1238475946" departLane='best' type="veh_passenger"/>
    <trip id="veh19" depart="5.24" from="189131397#12" to="-1081105658#0" departLane='best' type="veh_passenger"/>
    <trip id="veh20" depart="5.52" from="-189131373#5" to="-423590921#6" departLane='best' type="veh_passenger"/>
    <trip id="veh21" depart="5.79" from="-1081721431" to="-374688943#0" departLane='best' type="veh_passenger" departSpeed='max'/>
    <trip id="veh22" depart="6.07" from="-1082233885" to="-423400663#0" departLane='best' type="veh_passenger" departSpeed='max'/>
    <trip id="veh23" depart="6.35" from="1243973296#0" to="-451098562#5" departLane='best' type="veh_passenger" departSpeed='max'/>
    <trip id="veh24" depart="6.62" from="-423591329#1" to="-343503829#6" departLane='best' type="veh_passenger"/>
    <trip id="veh25" depart="6.90" from="-369837699#0" to="682348355#7" departLane='best' type="veh_passenger"/>
    <trip id="veh26" depart="7.17" from="1244556309#1" to="1306311280" departLane='best' type="veh_passenger"/>
    <trip id="veh27" depart="7.45" from="-1244553759#1" to="369837698#1" departLane='best' type="veh_passenger" departSpeed='max'/>
    <trip id="veh28" depart="7.73" from="-1244054812" to="-715646316#1" departLane='best' type="veh_passenger"/>
    <trip id="veh29" depart="8.00" from="875114549" to="1428980099#2" departLane='best' type="veh_passenger" departSpeed='max'/>
    <trip id="veh30" depart="8.28" from="1081107626#1" to="202969533#1" departLane='best' type="veh_passenger"/>
    <trip id="veh31" depart="8.55" from="423530938#1" to="423283928#1" departLane='best' type="veh_passenger"/>
    <trip id="veh32" depart="8.83" from="-189289359" to="-1056588303" departLane='best' type="veh_passenger"/>
    <trip id="veh33" depart="9.11" from="-423391565#1" to="-423391625#0" departLane='best' type="veh_passenger" departSpeed='max'/>
    <trip id="veh34" depart="9.38" from="-1428980100#1" to="715669944#1" departLane='best' type="veh_passenger"/>
    <trip id="veh35" depart="9.66" from="423607615" to="-423607602#0" departLane='best' type="veh_passenger"/>
    <trip id="veh36" depart="9.93" from="1255589759" to="-772396770#0" departLane='best' type="veh_passenger"/>
    <trip id="veh37" depart="10.21" from="423779469" to="1058039133#4" departLane='best' type="veh_passenger" departSpeed='max'/>
    <trip id="veh38" depart="10.49" from="-369835649#12" to="-410975171#3" departLane='best' type="veh_passenger"/>
    <trip id="veh39" depart="10.76" from="1081309638#2" to="-423344307#0" departLane='best' type="veh_passenger"/>
    <trip id="veh40" depart="11.04" from="1082229001#0" to="423779410" departLane='best' type="veh_passenger" departSpeed='max'/>
    <trip id="veh41" depart="11.31" from="-423737624#5" to="-369837698#11" departLane='best' type="veh_passenger"/>
    <trip id="veh42" depart="11.59" from="953265988#1" to="1082054987#1" departLane='best' type="veh_passenger"/>
    <trip id="veh43" depart="11.86" from="-1082059010#1" to="-1081105919#4" departLane='best' type="veh_passenger" departSpeed='max'/>
    <trip id="veh44" depart="12.14" from="-1120500717#3" to="1425310877" departLane='best' type="veh_passenger"/>
    <trip id="veh45" depart="12.42" from="374689131" to="103172948#7" departLane='best' type="veh_passenger"/>
    <trip id="veh46" depart="12.69" from="-1081314491" to="-717054146#0" departLane='best' type="veh_passenger" departSpeed='max'/>
    <trip id="veh47" depart="12.97" from="953260272#3" to="1120500717#1" departLane='best' type="veh_passenger"/>
    <trip id="veh48" depart="13.24" from="773120298#6" to="423627841#6" departLane='best' type="veh_passenger"/>
    <trip id="veh49" depart="13.52" from="-1042838384" to="36801846#1" departLane='best' type="veh_passenger"/>
    <trip id="veh50" depart="13.80" from="1428954063#3" to="1136945264#2" departLane='best' type="veh_passenger"/>
    <trip id="veh51" depart="14.07" from="-369837698#6" to="1428996008#1" departLane='best' type="veh_passenger"/>
    <trip id="veh52" depart="14.35" from="-1123259842#2" to="1053499501#1" departLane='best' type="veh_passenger" departSpeed='max'/>
    <trip id="veh53" depart="14.62" from="-682348188#6" to="717467043#6" departLane='best' type="veh_passenger"/>
    <trip id="veh54" depart="14.90" from="423607601" to="-423391552#7" departLane='best' type="veh_passenger" departSpeed='max'/>
    <trip id="veh55" depart="15.18" from="-952568329#0" to="-169033815#4" departLane='best' type="veh_passenger"/>
    <trip id="veh56" depart="15.45" from="423779442#3" to="423737610#0" departLane='best' type="veh_passenger"/>
    <trip id="veh57" depart="15.73" from="-423280944#7" to="1428966638" departLane='best' type="veh_passenger"/>
    <trip id="veh58" depart="16.00" from="1186660161#0" to="-1381040679#0" departLane='best' type="veh_passenger"/>
    <trip id="veh59" depart="16.28" from="36801841#1-AddedOffRampEdge" to="1150130318#0" departLane='best' type="veh_passenger"/>
    <trip id="veh60" depart="16.56" from="369837718#10" to="1122600929#1" departLane='best' type="veh_passenger"/>
    <trip id="veh61" depart="16.83" from="-1012414570#0" to="-423627883#0" departLane='best' type="veh_passenger"/>
    <trip id="veh62" depart="17.11" from="-1056582222#1" to="608989233#1" departLane='best' type="veh_passenger"/>
    <trip id="veh63" depart="17.38" from="423607646#3" to="423591218#1" departLane='best' type="veh_passenger"/>
    <trip id="veh64" depart="17.66" from="-423293430" to="-1081320989#0" departLane='best' type="veh_passenger" departSpeed='max'/>
    <trip id="veh65" depart="17.93" from="423607639#1" to="717090090" departLane='best' type="veh_passenger"/>
    <trip id="veh66" depart="18.21" from="-1081984263#1" to="1081317172" departLane='best' type="veh_passenger" departSpeed='max'/>
    <trip id="veh67" depart="18.49" from="-1081320989#1" to="39451643#6" departLane='best' type="veh_passenger" departSpeed='max'/>
    <trip id="veh68" depart="18.76" from="36804381#5" to="-1244504296#0" departLane='best' type="veh_passenger"/>
    <trip id="veh69" depart="19.04" from="-718764853#0" to="1187835577#1" departLane='best' type="veh_passenger"/>
    <trip id="veh70" depart="19.31" from="-369835649#16" to="423737623#1" departLane='best' type="veh_passenger"/>
    <trip id="veh71" depart="19.59" from="-423779401#1" to="-343506908#3" departLane='best' type="veh_passenger"/>
    <trip id="veh72" depart="19.87" from="1056588267#1" to="369837701#2" departLane='best' type="veh_passenger"/>
    <trip id="veh73" depart="20.14" from="-1428515096#5" to="-423607545#0" departLane='best' type="veh_passenger"/>
    <trip id="veh74" depart="20.42" from="952604550#3" to="168951942" departLane='best' type="veh_passenger"/>
    <trip id="veh75" depart="20.69" from="-423867561" to="1082229008#1" departLane='best' type="veh_passenger" departSpeed='max'/>
    <trip id="veh76" depart="20.97" from="-1171067986#1" to="-369837715#13" departLane='best' type="veh_passenger" departSpeed='max'/>
    <trip id="veh77" depart="21.25" from="-423530906" to="1244492617" departLane='best' type="veh_passenger" departSpeed='max'/>
    <trip id="veh78" depart="21.52" from="-189289371#1" to="-369837701#6" departLane='best' type="veh_passenger"/>
    <trip id="veh79" depart="21.80" from="-1081327390" to="1428542844#7" departLane='best' type="veh_passenger" departSpeed='max'/>
    <trip id="veh80" depart="22.07" from="-189289356#1" to="423779515#0" departLane='best' type="veh_passenger"/>
    <trip id="veh81" depart="22.35" from="423591219#0" to="-1082054984#0" departLane='best' type="veh_passenger" departSpeed='max'/>
    <trip id="veh82" depart="22.63" from="-189447730#3" to="189430936#1" departLane='best' type="veh_passenger"/>
    <trip id="veh83" depart="22.90" from="-1429146381#3" to="-1244535039#1" departLane='best' type="veh_passenger"/>
    <trip id="veh84" depart="23.18" from="56723584#15" to="1236756579" departLane='best' type="veh_passenger"/>
    <trip id="veh85" depart="23.45" from="-717499048" to="423391560#13" departLane='best' type="veh_passenger"/>
    <trip id="veh86" depart="23.73" from="410975171#3" to="-189447730#0" departLane='best' type="veh_passenger"/>
    <trip id="veh87" depart="24.01" from="-1082227006#1" to="1040796696#1" departLane='best' type="veh_passenger"/>
    <trip id="veh88" depart="24.28" from="-423779401#8" to="1079939692" departLane='best' type="veh_passenger"/>
    <trip id="veh89" depart="24.56" from="202969533#18" to="189447717#0" departLane='best' type="veh_passenger"/>
    <trip id="veh90" depart="24.83" from="782404744#5" to="-1186659655" departLane='best' type="veh_passenger"/>
    <trip id="veh91" depart="25.11" from="-423754632#3" to="-423754745" departLane='best' type="veh_passenger"/>
    <trip id="veh92" depart="25.38" from="423591258#2" to="-423280944#1" departLane='best' type="veh_passenger"/>
    <trip id="veh93" depart="25.66" from="-1311206001" to="1056583184" departLane='best' type="veh_passenger"/>
    <trip id="veh94" depart="25.94" from="-423779397#10" to="-423400676" departLane='best' type="veh_passenger" departSpeed='max'/>
    <trip id="veh95" depart="26.21" from="-203569946#0" to="532739771#0" departLane='best' type="veh_passenger"/>
    <trip id="veh96" depart="26.49" from="-451099396" to="423627851" departLane='best' type="veh_passenger" departSpeed='max'/>
    <trip id="veh97" depart="26.76" from="1079934642#0" to="-1081305216" departLane='best' type="veh_passenger"/>
    <trip id="veh98" depart="27.04" from="977466314" to="423591271#3" departLane='best' type="veh_passenger"/>
    <trip id="veh99" depart="27.32" from="772396770#6" to="58360987#2" departLane='best' type="veh_passenger"/>
    <trip id="veh100" depart="27.59" from="-773833731#0" to="-369835476#4" departLane='best' type="veh_passenger"/>
    <trip id="veh101" depart="27.87" from="-423737632#2" to="-1081321766#0" departLane='best' type="veh_passenger"/>
    <trip id="veh102" depart="28.14" from="-423607592#2" to="815127176" departLane='best' type="veh_passenger" departSpeed='max'/>
    <trip id="veh103" depart="28.42" from="-369835649#2" to="423391556#6" departLane='best' type="veh_passenger"/>
    <trip id="veh104" depart="28.70" from="-682895480#2" to="103172954#1" departLane='best' type="veh_passenger"/>
    <trip id="veh105" depart="28.97" from="717155785#0" to="952608065#2" departLane='best' type="veh_passenger"/>
    <trip id="veh106" depart="29.25" from="1081105919#1" to="36167773#1" departLane='best' type="veh_passenger"/>
    <trip id="veh107" depart="29.52" from="-1238475945" to="-423591194#2" departLane='best' type="veh_passenger"/>
    <trip id="veh108" depart="29.80" from="772396770#0" to="1242790509" departLane='best' type="veh_passenger" departSpeed='max'/>
    <trip id="veh109" depart="30.08" from="1056589522" to="374688977#4" departLane='best' type="veh_passenger"/>
    <trip id="veh110" depart="30.35" from="-1081305214" to="1244005428" departLane='best' type="veh_passenger" departSpeed='max'/>
    <trip id="veh111" depart="30.63" from="-952595752" to="423607612#1" departLane='best' type="veh_passenger" departSpeed='max'/>
    <trip id="veh112" depart="30.90" from="-1242796949" to="759789702#0" departLane='best' type="veh_passenger"/>
    <trip id="veh113" depart="31.18" from="-1081725921#1" to="-189430901#2" departLane='best' type="veh_passenger"/>
    <trip id="veh114" depart="31.46" from="1122615234" to="189447794#1" departLane='best' type="veh_passenger" departSpeed='max'/>
    <trip id="veh115" depart="31.73" from="-189447695#3" to="-1242731855" departLane='best' type="veh_passenger"/>
    <trip id="veh116" depart="32.01" from="423737591#0" to="-408838134#0" departLane='best' type="veh_passenger" departSpeed='max'/>
    <trip id="veh117" depart="32.28" from="1122615232#0" to="1311964498" departLane='best' type="veh_passenger" departSpeed='max'/>
    <trip id="veh118" depart="32.56" from="-423754791#2" to="1244004944#0" departLane='best' type="veh_passenger"/>
    <trip id="veh119" depart="32.83" from="1056581923#1" to="682347517#0" departLane='best' type="veh_passenger"/>
    <trip id="veh120" depart="33.11" from="-1428926142" to="35823180#2" departLane='best' type="veh_passenger"/>
    <trip id="veh121" depart="33.39" from="-189447738" to="-772396770#4" departLane='best' type="veh_passenger" departSpeed='max'/>
    <trip id="veh122" depart="33.66" from="1425310869#16" to="-423591241#2" departLane='best' type="veh_passenger"/>
    <trip id="veh123" depart="33.94" from="-423391583" to="374689143#2" departLane='best' type="veh_passenger" departSpeed='max'/>
    <trip id="veh124" depart="34.21" from="-1081329786#1" to="1056590761#1" departLane='best' type="veh_passenger" departSpeed='max'/>
    <trip id="veh125" depart="34.49" from="977466312#26" to="953260272#2" departLane='best' type="veh_passenger"/>
    <trip id="veh126" depart="34.77" from="-1081329792" to="-369835470#0" departLane='best' type="veh_passenger"/>
    <trip id="veh127" depart="35.04" from="-369835649#2" to="661755672" departLane='best' type="veh_passenger"/>
    <trip id="veh128" depart="35.32" from="423618492#0" to="423754676" departLane='best' type="veh_passenger" departSpeed='max'/>
    <trip id="veh129" depart="35.59" from="-423591325#9" to="-1428629922#6" departLane='best' type="veh_passenger" departSpeed='max'/>
    <trip id="veh130" depart="35.87" from="423391729#1" to="313905500#0" departLane='best' type="veh_passenger"/>
    <trip id="veh131" depart="36.15" from="1190376364#1" to="875092398#2" departLane='best' type="veh_passenger"/>
    <trip id="veh132" depart="36.42" from="1255237002" to="-1040429414#2" departLane='best' type="veh_passenger"/>
    <trip id="veh133" depart="36.70" from="423283929#0" to="-423591227#1" departLane='best' type="veh_passenger"/>
    <trip id="veh134" depart="36.97" from="1311203738#2" to="705056990#7" departLane='best' type="veh_passenger"/>
    <trip id="veh135" depart="37.25" from="-1203405285#1" to="-1238238680#2" departLane='best' type="veh_passenger"/>
    <trip id="veh136" depart="37.53" from="-1118272424#2" to="1190967211#2" departLane='best' type="veh_passenger"/>
    <trip id="veh137" depart="37.80" from="-369837715#2" to="1283135043#7" departLane='best' type="veh_passenger"/>
    <trip id="veh138" depart="38.08" from="189447730#0" to="-207565747#23" departLane='best' type="veh_passenger" departSpeed='max'/>
    <trip id="veh139" depart="38.35" from="1243970306#0" to="-423391555#4" departLane='best' type="veh_passenger" departSpeed='max'/>
    <trip id="veh140" depart="38.63" from="-774638593#5" to="423779514#0" departLane='best' type="veh_passenger" departSpeed='max'/>
    <trip id="veh141" depart="38.91" from="423590906#4" to="-1170526498" departLane='best' type="veh_passenger"/>
    <trip id="veh142" depart="39.18" from="-423779401#8" to="-423400629#2" departLane='best' type="veh_passenger"/>
    <trip id="veh143" depart="39.46" from="-103172954#23" to="423281053#9" departLane='best' type="veh_passenger"/>
    <trip id="veh144" depart="39.73" from="1244002221#0" to="-423293470#0" departLane='best' type="veh_passenger"/>
    <trip id="veh145" depart="40.01" from="257763277#0" to="1189338382" departLane='best' type="veh_passenger" departSpeed='max'/>
    <trip id="veh146" depart="40.28" from="-423779443#3" to="-1040505179#1" departLane='best' type="veh_passenger"/>
    <trip id="veh147" depart="40.56" from="-1081364942#1" to="423754715" departLane='best' type="veh_passenger"/>
    <trip id="veh148" depart="40.84" from="423754775#0" to="1185438184#1" departLane='best' type="veh_passenger" departSpeed='max'/>
    <trip id="veh149" depart="41.11" from="423391739#3" to="1243995888#4" departLane='best' type="veh_passenger"/>
    <trip id="veh150" depart="41.39" from="-1236550874" to="-1244459179" departLane='best' type="veh_passenger"/>
    <trip id="veh151" depart="41.66" from="-423293435" to="423779437" departLane='best' type="veh_passenger"/>
    <trip id="veh152" depart="41.94" from="392064534#4" to="423627841#4" departLane='best' type="veh_passenger"/>
    <trip id="veh153" depart="42.22" from="423754700#2" to="-343503830#9" departLane='best' type="veh_passenger"/>
    <trip id="veh154" depart="42.49" from="-203569944#1" to="-1203405287" departLane='best' type="veh_passenger"/>
    <trip id="veh155" depart="42.77" from="369837720#4" to="423754724#0" departLane='best' type="veh_passenger"/>
    <trip id="veh156" depart="43.04" from="-423754682" to="1376112028" departLane='best' type="veh_passenger" departSpeed='max'/>
    <trip id="veh157" depart="43.32" from="-1238289074" to="608989233#7" departLane='best' type="veh_passenger"/>
    <trip id="veh158" depart="43.60" from="423591292#3" to="776552087" departLane='best' type="veh_passenger"/>
    <trip id="veh159" depart="43.87" from="423280996" to="423754699" departLane='best' type="veh_passenger" departSpeed='max'/>
    <trip id="veh160" depart="44.15" from="-1056582723#0" to="369837719#13" departLane='best' type="veh_passenger"/>
    <trip id="veh161" depart="44.42" from="-423400669#1" to="623832915#6" departLane='best' type="veh_passenger" departSpeed='max'/>
    <trip id="veh162" depart="44.70" from="39451656#3" to="423627890#2" departLane='best' type="veh_passenger"/>
    <trip id="veh163" depart="44.98" from="423280996" to="-423391582" departLane='best' type="veh_passenger" departSpeed='max'/>
    <trip id="veh164" depart="45.25" from="374688947#8" to="-1211563462" departLane='best' type="veh_passenger"/>
    <trip id="veh165" depart="45.53" from="423607525" to="423627837#0" departLane='best' type="veh_passenger"/>
    <trip id="veh166" depart="45.80" from="-168951958#7" to="423590921#1" departLane='best' type="veh_passenger"/>
    <trip id="veh167" depart="46.08" from="-715646317#1" to="-423591311#5" departLane='best' type="veh_passenger" departSpeed='max'/>
    <trip id="veh168" depart="46.36" from="380700998#17" to="-369837723#7" departLane='best' type="veh_passenger"/>
    <trip id="veh169" depart="46.63" from="-1056582255" to="-189447804#0" departLane='best' type="veh_passenger" departSpeed='max'/>
    <trip id="veh170" depart="46.91" from="-423400629#5" to="423627891#6" departLane='best' type="veh_passenger"/>
    <trip id="veh171" depart="47.18" from="764071330#0" to="-423400687#1" departLane='best' type="veh_passenger"/>
    <trip id="veh172" depart="47.46" from="1244504293#0" to="-773603310#6" departLane='best' type="veh_passenger" departSpeed='max'/>
    <trip id="veh173" depart="47.73" from="782400648#1" to="1136379366" departLane='best' type="veh_passenger"/>
    <trip id="veh174" depart="48.01" from="59035954#10-AddedOnRampEdge" to="-1238238680#0" departLane='best' type="veh_passenger"/>
    <trip id="veh175" depart="48.29" from="773114851#3" to="-169033815#2" departLane='best' type="veh_passenger"/>
    <trip id="veh176" depart="48.56" from="718279137#1" to="-423391562#2" departLane='best' type="veh_passenger"/>
    <trip id="veh177" depart="48.84" from="-1120023916" to="1051441315#0" departLane='best' type="veh_passenger"/>
    <trip id="veh178" depart="49.11" from="189447982#1" to="-423607592#0" departLane='best' type="veh_passenger"/>
    <trip id="veh179" depart="49.39" from="1184970104#1" to="1082059014#1" departLane='best' type="veh_passenger"/>
    <trip id="veh180" depart="49.67" from="-423607668#0" to="1238288378#0" departLane='best' type="veh_passenger"/>
    <trip id="veh181" depart="49.94" from="-279990638#1" to="35306917#2" departLane='best' type="veh_passenger"/>
    <trip id="veh182" depart="50.22" from="-103172942#6" to="56723584#34" departLane='best' type="veh_passenger"/>
    <trip id="veh183" depart="50.49" from="1056587305#1" to="36167773#8" departLane='best' type="veh_passenger"/>
    <trip id="veh184" depart="50.77" from="279990632#0" to="189447687#3" departLane='best' type="veh_passenger"/>
    <trip id="veh185" depart="51.05" from="-423591273#3" to="-1082004726#0" departLane='best' type="veh_passenger"/>
    <trip id="veh186" depart="51.32" from="1311507436" to="-423737612#1" departLane='best' type="veh_passenger" departSpeed='max'/>
    <trip id="veh187" depart="51.60" from="-423391560#7" to="423607545#3" departLane='best' type="veh_passenger"/>
    <trip id="veh188" depart="51.87" from="189447794#5" to="-423591254#4" departLane='best' type="veh_passenger"/>
    <trip id="veh189" depart="52.15" from="-423293456#1" to="-875092398#0" departLane='best' type="veh_passenger"/>
    <trip id="veh190" depart="52.43" from="-423737640#4" to="-423591186#0" departLane='best' type="veh_passenger"/>
    <trip id="veh191" depart="52.70" from="-1186665463#1" to="1012414569#1" departLane='best' type="veh_passenger"/>
    <trip id="veh192" depart="52.98" from="608989233#0" to="189447826#1" departLane='best' type="veh_passenger"/>
    <trip id="veh193" depart="53.25" from="423754766#1" to="1311506084" departLane='best' type="veh_passenger"/>
    <trip id="veh194" depart="53.53" from="-423283894#0" to="1186816514#1" departLane='best' type="veh_passenger"/>
    <trip id="veh195" depart="53.80" from="-1012414569#1" to="-423590912#8" departLane='best' type="veh_passenger"/>
    <trip id="veh196" depart="54.08" from="-423779482#0" to="1242796949" departLane='best' type="veh_passenger"/>
    <trip id="veh197" depart="54.36" from="1255545849" to="1078191849" departLane='best' type="veh_passenger"/>
    <trip id="veh198" depart="54.63" from="-449578284#1" to="-369835476#3" departLane='best' type="veh_passenger"/>
    <trip id="veh199" depart="54.91" from="-717545274#0" to="423779443#13" departLane='best' type="veh_passenger"/>
    <trip id="veh200" depart="55.18" from="392064534#2" to="-150881409#9" departLane='best' type="veh_passenger"/>
    <trip id="veh201" depart="55.46" from="-1081751327" to="1082227001" departLane='best' type="veh_passenger" departSpeed='max'/>
    <trip id="veh202" depart="55.74" from="1238477692" to="-423754635#0" departLane='best' type="veh_passenger"/>
    <trip id="veh203" depart="56.01" from="423283933#6" to="374689138#1" departLane='best' type="veh_passenger"/>
    <trip id="veh204" depart="56.29" from="1425310871#0" to="-369837715#12" departLane='best' type="veh_passenger"/>
    <trip id="veh205" depart="56.56" from="-1417137063" to="-1056582752#0" departLane='best' type="veh_passenger" departSpeed='max'/>
    <trip id="veh206" depart="56.84" from="-189447924#7" to="1081136311#4" departLane='best' type="veh_passenger"/>
    <trip id="veh207" depart="57.12" from="423590921#12" to="-1082064220#0" departLane='best' type="veh_passenger"/>
    <trip id="veh208" depart="57.39" from="-423754758#2" to="1428515094#6" departLane='best' type="veh_passenger"/>
    <trip id="veh209" depart="57.67" from="-1311739436" to="24576821#4" departLane='best' type="veh_passenger" departSpeed='max'/>
    <trip id="veh210" depart="57.94" from="-777696676" to="-39451643#7" departLane='best' type="veh_passenger"/>
    <trip id="veh211" depart="58.22" from="1255965437" to="-1038929944#2" departLane='best' type="veh_passenger" departSpeed='max'/>
    <trip id="veh212" depart="58.50" from="343506908#6" to="423280961" departLane='best' type="veh_passenger"/>
    <trip id="veh213" depart="58.77" from="-1117754460" to="1038929941#2" departLane='best' type="veh_passenger"/>
    <trip id="veh214" depart="59.05" from="-1249868223" to="718764853#3" departLane='best' type="veh_passenger" departSpeed='max'/>
    <trip id="veh215" depart="59.32" from="1040505168#1" to="-1081301914" departLane='best' type="veh_passenger"/>
    <trip id="veh216" depart="59.60" from="-203569940#1" to="423607547#1" departLane='best' type="veh_passenger" departSpeed='max'/>
    <trip id="veh217" depart="59.88" from="-705045235#2" to="423400651" departLane='best' type="veh_passenger"/>
    <trip id="veh218" depart="60.15" from="1371993091#2" to="875114550#1" departLane='best' type="veh_passenger"/>
    <trip id="veh219" depart="60.43" from="1123304908#0" to="717148842#1" departLane='best' type="veh_passenger"/>
    <trip id="veh220" depart="60.70" from="423737608" to="1308182701" departLane='best' type="veh_passenger" departSpeed='max'/>
    <trip id="veh221" depart="60.98" from="189447794#16" to="1081980688#1" departLane='best' type="veh_passenger"/>
    <trip id="veh222" depart="61.25" from="423391676#2" to="1186816514#1" departLane='best' type="veh_passenger"/>
    <trip id="veh223" depart="61.53" from="423754635#0" to="370186848#4" departLane='best' type="veh_passenger" departSpeed='max'/>
    <trip id="veh224" depart="61.81" from="-718268727#2" to="-423293425#2" departLane='best' type="veh_passenger"/>
    <trip id="veh225" depart="62.08" from="-189447978#1" to="1428963661#4" departLane='best' type="veh_passenger"/>
    <trip id="veh226" depart="62.36" from="36804381#4" to="1082241061#1" departLane='best' type="veh_passenger"/>
    <trip id="veh227" depart="62.63" from="1236537355" to="-423391755#1" departLane='best' type="veh_passenger"/>
    <trip id="veh228" depart="62.91" from="-1081667261#1" to="-423590906#9" departLane='best' type="veh_passenger"/>
    <trip id="veh229" depart="63.19" from="-369837713#1" to="-423627837#1" departLane='best' type="veh_passenger"/>
    <trip id="veh230" depart="63.46" from="1056588295#1" to="-1249883944#0" departLane='best' type="veh_passenger"/>
    <trip id="veh231" depart="63.74" from="-189430870#3" to="235103510#6" departLane='best' type="veh_passenger"/>
    <trip id="veh232" depart="64.01" from="189289368#0" to="-1081717218" departLane='best' type="veh_passenger"/>
    <trip id="veh233" depart="64.29" from="-423754693" to="1184935952#0" departLane='best' type="veh_passenger" departSpeed='max'/>
    <trip id="veh234" depart="64.57" from="-423754769#2" to="-279990637#1" departLane='best' type="veh_passenger" departSpeed='max'/>
    <trip id="veh235" depart="64.84" from="1082227006#0" to="24576807#1" departLane='best' type="veh_passenger"/>
    <trip id="veh236" depart="65.12" from="423591186#1" to="408832999" departLane='best' type="veh_passenger"/>
    <trip id="veh237" depart="65.39" from="-423591067" to="380700998#16" departLane='best' type="veh_passenger" departSpeed='max'/>
    <trip id="veh238" depart="65.67" from="423591060#13" to="717467043#1" departLane='best' type="veh_passenger"/>
    <trip id="veh239" depart="65.95" from="-423754789#1" to="374688973#1" departLane='best' type="veh_passenger" departSpeed='max'/>
    <trip id="veh240" depart="66.22" from="1070111899#1" to="1255963339" departLane='best' type="veh_passenger"/>
    <trip id="veh241" depart="66.50" from="-168951943#1" to="-369837698#6" departLane='best' type="veh_passenger"/>