<?xml version="1.0" encoding="UTF-8"?>

<!-- generated on 2026-04-03 11:40:01.451312 by Eclipse SUMO randomTrips.py v1_26_0+0000-fa7df22d7f1
<configuration>
    <net-file value="osm.net.xml.gz"/>
    <output-trip-file value="osm.passenger.trips.xml"/>
    <route-file value="osm.passenger.rou.xml"/>
    <prefix value="veh"/>
    <trip-attributes value="departLane=best"/>
    <fringe-start-attributes value="departSpeed=max"/>
    <vehicle-class value="passenger"/>
    <lanes value="True"/>
    <fringe-factor value="5"/>
    <allow-fringe.min-length value="1000.0"/>
    <edge-permission value="passenger"/>
    <min-distance value="300.0"/>
    <min-distance.fringe value="10.0"/>
    <remove-loops value="True"/>
    <insertion-density value="40.0"/>
</configuration>
-->

<routes xmlns:xsi="http://www.w3.org/2001/XMLSchema-instance" xsi:noNamespaceSchemaLocation="http://sumo.dlr.de/xsd/routes_file.xsd">
    <vType id="veh_passenger" vClass="passenger"/>
    <trip id="veh0" depart="0.00" from="169693835#8" to="-1241900629" departLane=best type="veh_passenger"/>
    <trip id="veh1" depart="0.12" from="169695717" to="169693972#2" departLane=best type="veh_passenger" departSpeed=max/>
    <trip id="veh2" depart="0.24" from="169765148#0" to="-1396830044#1" departLane=best type="veh_passenger" departSpeed=max/>
    <trip id="veh3" depart="0.37" from="-169765154#0" to="-1242125736#1" departLane=best type="veh_passenger"/>
    <trip id="veh4" depart="0.49" from="-169693968#2" to="1286314036" departLane=best type="veh_passenger"/>
    <trip id="veh5" depart="0.61" from="-1147543892#4" to="-169695677#0" departLane=best type="veh_passenger"/>
    <trip id="veh6" depart="0.73" from="169693843#9" to="1396189154" departLane=best type="veh_passenger"/>
    <trip id="veh7" depart="0.85" from="-169693972#0" to="161248335#2" departLane=best type="veh_passenger"/>
    <trip id="veh8" depart="0.98" from="169764834#0" to="-1147257893#0" departLane=best type="veh_passenger"/>
    <trip id="veh9" depart="1.10" from="169764823#0" to="169695650#12" departLane=best type="veh_passenger"/>
    <trip id="veh10" depart="1.22" from="-169764918" to="-169693936#0" departLane=best type="veh_passenger" departSpeed=max/>
    <trip id="veh11" depart="1.34" from="314250512#7" to="-169765099#0" departLane=best type="veh_passenger"/>
    <trip id="veh12" depart="1.46" from="-1395972530#1" to="-169691899#0" departLane=best type="veh_passenger"/>
    <trip id="veh13" depart="1.59" from="169765006" to="169691899#7" departLane=best type="veh_passenger" departSpeed=max/>
    <trip id="veh14" depart="1.71" from="169764825#1" to="169695762#1" departLane=best type="veh_passenger"/>
    <trip id="veh15" depart="1.83" from="125924370#2" to="314250545#1-AddedOnRampEdge" departLane=best type="veh_passenger"/>
    <trip id="veh16" depart="1.95" from="-169765035" to="1396829977#1" departLane=best type="veh_passenger" departSpeed=max/>
    <trip id="veh17" depart="2.07" from="169764897" to="169693830#9" departLane=best type="veh_passenger" departSpeed=max/>
    <trip id="veh18" depart="2.20" from="169765054#0" to="1427045450#1" departLane=best type="veh_passenger"/>
    <trip id="veh19" depart="2.32" from="169694015#3" to="-1395972500#2" departLane=best type="veh_passenger"/>
    <trip id="veh20" depart="2.44" from="-169694008" to="-169764888" departLane=best type="veh_passenger" departSpeed=max/>
    <trip id="veh21" depart="2.56" from="-1395972502#4" to="-169695780#0" departLane=best type="veh_passenger"/>
    <trip id="veh22" depart="2.68" from="-1395972551#6" to="-169764842#3" departLane=best type="veh_passenger"/>
    <trip id="veh23" depart="2.81" from="169693835#13" to="-169765168" departLane=best type="veh_passenger"/>
    <trip id="veh24" depart="2.93" from="-169765018#1" to="-169695718#0" departLane=best type="veh_passenger" departSpeed=max/>
    <trip id="veh25" depart="3.05" from="-169695737#1" to="269076678" departLane=best type="veh_passenger" departSpeed=max/>
    <trip id="veh26" depart="3.17" from="169693841#8" to="169691935#3" departLane=best type="veh_passenger"/>
    <trip id="veh27" depart="3.29" from="-169693837#2" to="169695759#0" departLane=best type="veh_passenger"/>
    <trip id="veh28" depart="3.42" from="-169693830#6" to="-169765196#0" departLane=best type="veh_passenger"/>
    <trip id="veh29" depart="3.54" from="315647842#0" to="169693854#0" departLane=best type="veh_passenger" departSpeed=max/>
    <trip id="veh30" depart="3.66" from="1395972510" to="169694008" departLane=best type="veh_passenger"/>
    <trip id="veh31" depart="3.78" from="169764975#5" to="169764811#0" departLane=best type="veh_passenger"/>
    <trip id="veh32" depart="3.90" from="-169694013#0" to="-1243998639" departLane=best type="veh_passenger"/>
    <trip id="veh33" depart="4.03" from="-169764836" to="-169764820" departLane=best type="veh_passenger"/>
    <trip id="veh34" depart="4.15" from="-169693940" to="278977257#14" departLane=best type="veh_passenger" departSpeed=max/>
    <trip id="veh35" depart="4.27" from="169693866" to="-169765231#2" departLane=best type="veh_passenger" departSpeed=max/>
    <trip id="veh36" depart="4.39" from="169765183#1" to="1209953012#4-AddedOffRampEdge" departLane=best type="veh_passenger"/>
    <trip id="veh37" depart="4.52" from="-169695732#0" to="-169695807#1" departLane=best type="veh_passenger"/>
    <trip id="veh38" depart="4.64" from="1395972523" to="-169764808#2" departLane=best type="veh_passenger"/>
    <trip id="veh39" depart="4.76" from="1396829981#0" to="169765161#1" departLane=best type="veh_passenger"/>
    <trip id="veh40" depart="4.88" from="-169765101" to="-169695754#0" departLane=best type="veh_passenger" departSpeed=max/>
    <trip id="veh41" depart="5.00" from="548832295#1" to="1395972496#1" departLane=best type="veh_passenger"/>
    <trip id="veh42" depart="5.13" from="-1395972526" to="-1395972502#3" departLane=best type="veh_passenger"/>
    <trip id="veh43" depart="5.25" from="-1396829968#0" to="169693838#9" departLane=best type="veh_passenger"/>
    <trip id="veh44" depart="5.37" from="169764796#1" to="1147257883#2" departLane=best type="veh_passenger"/>
    <trip id="veh45" depart="5.49" from="-1244004319" to="-169765198#4" departLane=best type="veh_passenger" departSpeed=max/>
    <trip id="veh46" depart="5.61" from="315647843#3" to="1395972530#1" departLane=best type="veh_passenger"/>
    <trip id="veh47" depart="5.74" from="314250545#2" to="169765069#1" departLane=best type="veh_passenger"/>
    <trip id="veh48" depart="5.86" from="-1147257898#1" to="169695732#1" departLane=best type="veh_passenger" departSpeed=max/>
    <trip id="veh49" depart="5.98" from="169693941#1" to="1395972551#2" departLane=best type="veh_passenger"/>
    <trip id="veh50" depart="6.10" from="-169695737#1" to="169693854#2" departLane=best type="veh_passenger" departSpeed=max/>
    <trip id="veh51" depart="6.22" from="-1396829970#0" to="1147258971#1" departLane=best type="veh_passenger"/>
    <trip id="veh52" depart="6.35" from="-169765223#4" to="278979622#1" departLane=best type="veh_passenger" departSpeed=max/>
    <trip id="veh53" depart="6.47" from="1147258972" to="-169694012#2" departLane=best type="veh_passenger" departSpeed=max/>
    <trip id="veh54" depart="6.59" from="169765180#0" to="169765102#1" departLane=best type="veh_passenger" departSpeed=max/>
    <trip id="veh55" depart="6.71" from="-169695820#0" to="169693851" departLane=best type="veh_passenger"/>
    <trip id="veh56" depart="6.83" from="164183705#3" to="-169693927#0" departLane=best type="veh_passenger"/>
    <trip id="veh57" depart="6.96" from="169695788#1" to="1395972554#1" departLane=best type="veh_passenger"/>
    <trip id="veh58" depart="7.08" from="169695829#0" to="1395972532#1" departLane=best type="veh_passenger" departSpeed=max/>
    <trip id="veh59" depart="7.20" from="-1147028269#0" to="-169765065" departLane=best type="veh_passenger"/>
    <trip id="veh60" depart="7.32" from="-1147543882" to="169765230#2" departLane=best type="veh_passenger" departSpeed=max/>
    <trip id="veh61" depart="7.44" from="169765100#2" to="169764994#1" departLane=best type="veh_passenger"/>
    <trip id="veh62" depart="7.57" from="-169764811#2" to="-1395972529#3" departLane=best type="veh_passenger"/>
    <trip id="veh63" depart="7.69" from="169765099#0" to="278977333#2" departLane=best type="veh_passenger" departSpeed=max/>
    <trip id="veh64" depart="7.81" from="-1395972514#1" to="1242129316" departLane=best type="veh_passenger"/>
    <trip id="veh65" depart="7.93" from="-125941740#0" to="169695836#0" departLane=best type="veh_passenger"/>
    <trip id="veh66" depart="8.05" from="169695794#1" to="-169693858" departLane=best type="veh_passenger"/>
    <trip id="veh67" depart="8.18" from="-278979594#1" to="1396829972#1" departLane=best type="veh_passenger"/>
    <trip id="veh68" depart="8.30" from="-169695732#1" to="169765108#0" departLane=best type="veh_passenger" departSpeed=max/>
    <trip id="veh69" depart="8.42" from="-169765155#2" to="-169695730#1" departLane=best type="veh_passenger" departSpeed=max/>
    <trip id="veh70" depart="8.54" from="125936781#8" to="169695764#0" departLane=best type="veh_passenger"/>
    <trip id="veh71" depart="8.66" from="-169693911" to="-169765019#0" departLane=best type="veh_passenger" departSpeed=max/>
    <trip id="veh72" depart="8.79" from="315647843#0" to="169693890" departLane=best type="veh_passenger" departSpeed=max/>
    <trip id="veh73" depart="8.91" from="-169765190#2" to="1395972504#3" departLane=best type="veh_passenger"/>
    <trip id="veh74" depart="9.03" from="-1396829989#2" to="-169695762#0" departLane=best type="veh_passenger"/>
    <trip id="veh75" depart="9.15" from="-169764902" to="161248335#0" departLane=best type="veh_passenger" departSpeed=max/>
    <trip id="veh76" depart="9.27" from="-169694015#3" to="-169695756#0" departLane=best type="veh_passenger"/>
    <trip id="veh77" depart="9.40" from="-125982851#3" to="169693840#5" departLane=best type="veh_passenger"/>
    <trip id="veh78" depart="9.52" from="-169694013#0" to="169765176#5" departLane=best type="veh_passenger"/>
    <trip id="veh79" depart="9.64" from="169765043#1" to="-1396189153#1" departLane=best type="veh_passenger"/>
    <trip id="veh80" depart="9.76" from="169765231#3" to="1396830009" departLane=best type="veh_passenger"/>
    <trip id="veh81" depart="9.88" from="-278977311#0" to="169764837#1" departLane=best type="veh_passenger"/>
    <trip id="veh82" depart="10.01" from="169764826#2" to="-169695641#7" departLane=best type="veh_passenger"/>
    <trip id="veh83" depart="10.13" from="-1395972538#0" to="1147257898#1" departLane=best type="veh_passenger"/>
    <trip id="veh84" depart="10.25" from="-169765155#2" to="1241904645" departLane=best type="veh_passenger" departSpeed=max/>
    <trip id="veh85" depart="10.37" from="169695693" to="169693967#2" departLane=best type="veh_passenger"/>
    <trip id="veh86" depart="10.49" from="314250576" to="-169691899#8" departLane=best type="veh_passenger"/>
    <trip id="veh87" depart="10.62" from="-169765111#0" to="-169765107" departLane=best type="veh_passenger"/>
    <trip id="veh88" depart="10.74" from="169765054#0" to="-169695814#3" departLane=best type="veh_passenger"/>
    <trip id="veh89" depart="10.86" from="-169693867" to="1147543894#0" departLane=best type="veh_passenger" departSpeed=max/>
    <trip id="veh90" depart="10.98" from="-169765154#0" to="-169764842#7" departLane=best type="veh_passenger"/>
    <trip id="veh91" depart="11.10" from="-169695678" to="169765217#4" departLane=best type="veh_passenger" departSpeed=max/>
    <trip id="veh92" depart="11.23" from="-169765198#5" to="169765070#1" departLane=best type="veh_passenger"/>
    <trip id="veh93" depart="11.35" from="570599570#0" to="169765005" departLane=best type="veh_passenger"/>
    <trip id="veh94" depart="11.47" from="314250543#2" to="169765223#4" departLane=best type="veh_passenger"/>
    <trip id="veh95" depart="11.59" from="169765008#1" to="-169693966#0" departLane=best type="veh_passenger"/>
    <trip id="veh96" depart="11.71" from="1079901524#0" to="-169695740#1" departLane=best type="veh_passenger" departSpeed=max/>
    <trip id="veh97" depart="11.84" from="-169765104#0" to="-1395972530#2" departLane=best type="veh_passenger"/>
    <trip id="veh98" depart="11.96" from="-169765036" to="314250568#1" departLane=best type="veh_passenger" departSpeed=max/>
    <trip id="veh99" depart="12.08" from="-169695732#1" to="169764834#3" departLane=best type="veh_passenger" departSpeed=max/>
    <trip id="veh100" depart="12.20" from="-169765227#0" to="1147257884" departLane=best type="veh_passenger"/>
    <trip id="veh101" depart="12.32" from="314250512#7" to="315647843#1" departLane=best type="veh_passenger"/>
    <trip id="veh102" depart="12.45" from="1395972506#1" to="169695725" departLane=best type="veh_passenger"/>
    <trip id="veh103" depart="12.57" from="-169691933#1" to="-169764935" departLane=best type="veh_passenger"/>
    <trip id="veh104" depart="12.69" from="314250543#1-AddedOnRampEdge" to="1427045480" departLane=best type="veh_passenger"/>
    <trip id="veh105" depart="12.81" from="125982851#4" to="169695803#2" departLane=best type="veh_passenger"/>
    <trip id="veh106" depart="12.93" from="-1243998641" to="161248331#1" departLane=best type="veh_passenger" departSpeed=max/>
    <trip id="veh107" depart="13.06" from="1147543881#0" to="169765049" departLane=best type="veh_passenger"/>
    <trip id="veh108" depart="13.18" from="-169691937#2" to="314250514#1-AddedOffRampEdge" departLane=best type="veh_passenger"/>
    <trip id="veh109" depart="13.30" from="-1395972503#0" to="-169694028#1" departLane=best type="veh_passenger"/>
    <trip id="veh110" depart="13.42" from="1427045452" to="169693969#2" departLane=best type="veh_passenger"/>
    <trip id="veh111" depart="13.55" from="169765139#0" to="-169695806#5" departLane=best type="veh_passenger"/>
    <trip id="veh112" depart="13.67" from="1427045449#1" to="169693835#12" departLane=best type="veh_passenger"/>
    <trip id="veh113" depart="13.79" from="-169765149#17" to="161248330#8" departLane=best type="veh_passenger"/>
    <trip id="veh114" depart="13.91" from="1209953014#4" to="265969012#2" departLane=best type="veh_passenger"/>
    <trip id="veh115" depart="14.03" from="-169693916#2" to="169695718#1" departLane=best type="veh_passenger"/>
    <trip id="veh116" depart="14.16" from="-169695640#2" to="-169765231#3" departLane=best type="veh_passenger"/>
    <trip id="veh117" depart="14.28" from="169693917#0" to="-169764956" departLane=best type="veh_passenger"/>
    <trip id="veh118" depart="14.40" from="-169764837#5" to="169695814#6" departLane=best type="veh_passenger"/>
    <trip id="veh119" depart="14.52" from="-1395972495#3" to="1209953012#3" departLane=best type="veh_passenger"/>
    <trip id="veh120" depart="14.64" from="570599568#0" to="315647843#3" departLane=best type="veh_passenger"/>
    <trip id="veh121" depart="14.77" from="-1395972496#2" to="-169695738#0" departLane=best type="veh_passenger"/>
    <trip id="veh122" depart="14.89" from="-169695732#1" to="188042229#2" departLane=best type="veh_passenger" departSpeed=max/>
    <trip id="veh123" depart="15.01" from="169765108#0" to="169765133" departLane=best type="veh_passenger"/>
    <trip id="veh124" depart="15.13" from="-169765016#1" to="-169693943#0" departLane=best type="veh_passenger" departSpeed=max/>
    <trip id="veh125" depart="15.25" from="169764913" to="169695672" departLane=best type="veh_passenger"/>
    <trip id="veh126" depart="15.38" from="164183795#4" to="314250572#3" departLane=best type="veh_passenger"/>
    <trip id="veh127" depart="15.50" from="169693860" to="-1147257898#0" departLane=best type="veh_passenger" departSpeed=max/>
    <trip id="veh128" depart="15.62" from="169764843#2" to="-169764956" departLane=best type="veh_passenger"/>
    <trip id="veh129" depart="15.74" from="169693894" to="278977060" departLane=best type="veh_passenger" departSpeed=max/>
    <trip id="veh130" depart="15.86" from="-1396830009" to="-169693835#29" departLane=best type="veh_passenger" departSpeed=max/>
    <trip id="veh131" depart="15.99" from="-1396189151#0" to="1396829978#0" departLane=best type="veh_passenger"/>
    <trip id="veh132" depart="16.11" from="-169695754#1" to="169691916#2" departLane=best type="veh_passenger" departSpeed=max/>
    <trip id="veh133" depart="16.23" from="169695652#1" to="-169695695#1" departLane=best type="veh_passenger"/>
    <trip id="veh134" depart="16.35" from="169693830#7" to="-169764811#2" departLane=best type="veh_passenger"/>
    <trip id="veh135" depart="16.47" from="1147035687" to="169765176#5" departLane=best type="veh_passenger"/>
    <trip id="veh136" depart="16.60" from="169764994#0" to="-164183711#9" departLane=best type="veh_passenger"/>
    <trip id="veh137" depart="16.72" from="-169765155#2" to="-169764840#9" departLane=best type="veh_passenger" departSpeed=max/>
    <trip id="veh138" depart="16.84" from="-1147257884" to="169764799#2" departLane=best type="veh_passenger" departSpeed=max/>
    <trip id="veh139" depart="16.96" from="169693835#21" to="-169764801#0" departLane=best type="veh_passenger"/>
    <trip id="veh140" depart="17.08" from="169695740#1" to="1396829976" departLane=best type="veh_passenger"/>
    <trip id="veh141" depart="17.21" from="-169765163#1" to="-1147257900" departLane=best type="veh_passenger"/>
    <trip id="veh142" depart="17.33" from="-1395972497#4" to="169765139#2" departLane=best type="veh_passenger"/>
    <trip id="veh143" depart="17.45" from="169765165#0" to="1396189156#1" departLane=best type="veh_passenger" departSpeed=max/>
    <trip id="veh144" depart="17.57" from="169764921" to="161248330#5" departLane=best type="veh_passenger" departSpeed=max/>
    <trip id="veh145" depart="17.69" from="-169691883#1" to="-169693845" departLane=best type="veh_passenger"/>
    <trip id="veh146" depart="17.82" from="-169764813#1" to="169765163#1" departLane=best type="veh_passenger"/>
    <trip id="veh147" depart="17.94" from="169764799#6" to="169765069#1" departLane=best type="veh_passenger"/>
    <trip id="veh148" depart="18.06" from="169765155#1" to="-169695722" departLane=best type="veh_passenger"/>
    <trip id="veh149" depart="18.18" from="-169695678" to="-169691934#0" departLane=best type="veh_passenger" departSpeed=max/>
    <trip id="veh150" depart="18.30" from="169695831#1" to="169765141#0" departLane=best type="veh_passenger"/>
    <trip id="veh151" depart="18.43" from="-169765129#1" to="169693835#2" departLane=best type="veh_passenger"/>
    <trip id="veh152" depart="18.55" from="-169691932#9" to="169765231#3" departLane=best type="veh_passenger"/>
    <trip id="veh153" depart="18.67" from="169765061#0" to="314250546#3" departLane=best type="veh_passenger"/>
    <trip id="veh154" depart="18.79" from="169764837#3" to="169765137" departLane=best type="veh_passenger"/>
    <trip id="veh155" depart="18.91" from="-1147543888#1" to="169695778#2" departLane=best type="veh_passenger" departSpeed=max/>
    <trip id="veh156" depart="19.04" from="-169764877" to="169765234" departLane=best type="veh_passenger"/>
    <trip id="veh157" depart="19.16" from="169764816#0" to="169765082" departLane=best type="veh_passenger"/>
    <trip id="veh158" depart="19.28" from="169764837#3" to="-169764819#0" departLane=best type="veh_passenger"/>
    <trip id="veh159" depart="19.40" from="169764791#3" to="-169693830#1" departLane=best type="veh_passenger"/>
    <trip id="veh160" depart="19.52" from="169765084#0" to="169765063" departLane=best type="veh_passenger" departSpeed=max/>
    <trip id="veh161" depart="19.65" from="-169693981#1" to="169764942" departLane=best type="veh_passenger"/>
    <trip id="veh162" depart="19.77" from="-265969010#4" to="-169764981#7" departLane=best type="veh_passenger"/>
    <trip id="veh163" depart="19.89" from="169764799#4" to="-169695768#0" departLane=best type="veh_passenger"/>
    <trip id="veh164" depart="20.01" from="-1147543887" to="-169695652#0" departLane=best type="veh_passenger"/>
    <trip id="veh165" depart="20.13" from="-169764860" to="169765082" departLane=best type="veh_passenger" departSpeed=max/>
    <trip id="veh166" depart="20.26" from="314250542#1" to="-169764843#0" departLane=best type="veh_passenger"/>
    <trip id="veh167" depart="20.38" from="169693838#3" to="-269076492#1" departLane=best type="veh_passenger"/>
    <trip id="veh168" depart="20.50" from="314250569#1" to="1395972548#1" departLane=best type="veh_passenger"/>
    <trip id="veh169" depart="20.62" from="265969012#4" to="-169693835#28" departLane=best type="veh_passenger"/>
    <trip id="veh170" depart="20.74" from="314250545#1-AddedOnRampEdge" to="-169694012#1" departLane=best type="veh_passenger"/>
    <trip id="veh171" depart="20.87" from="314250518#1-AddedOnRampEdge" to="-169764816#1" departLane=best type="veh_passenger"/>
    <trip id="veh172" depart="20.99" from="-1396189155" to="1147258970#1" departLane=best type="veh_passenger"/>
    <trip id="veh173" depart="21.11" from="169695689" to="-169765025#0" departLane=best type="veh_passenger"/>
    <trip id="veh174" depart="21.23" from="161248335#3" to="1395972497#2" departLane=best type="veh_passenger"/>
    <trip id="veh175" depart="21.35" from="-169765053#1" to="1396830051" departLane=best type="veh_passenger" departSpeed=max/>
    <trip id="veh176" depart="21.48" from="-1147035678" to="169765223#1" departLane=best type="veh_passenger" departSpeed=max/>
    <trip id="veh177" depart="21.60" from="125936781#2" to="169695730#2" departLane=best type="veh_passenger"/>
    <trip id="veh178" depart="21.72" from="169695741#2" to="169693958#0" departLane=best type="veh_passenger"/>
    <trip id="veh179" depart="21.84" from="-169765000#1" to="-1396189151#1" departLane=best type="veh_passenger" departSpeed=max/>
    <trip id="veh180" depart="21.97" from="169693894" to="-169765084#0" departLane=best type="veh_passenger" departSpeed=max/>
    <trip id="veh181" depart="22.09" from="-169764830#4" to="169765036" departLane=best type="veh_passenger"/>
    <trip id="veh182" depart="22.21" from="169695658" to="-169764958" departLane=best type="veh_passenger" departSpeed=max/>
    <trip id="veh183" depart="22.33" from="-169764816#2" to="-278977301#0" departLane=best type="veh_passenger"/>
    <trip id="veh184" depart="22.45" from="-169765108#0" to="-169764923" departLane=best type="veh_passenger"/>
    <trip id="veh185" depart="22.58" from="-1396829997" to="1147035678" departLane=best type="veh_passenger" departSpeed=max/>
    <trip id="veh186" depart="22.70" from="269076604#2" to="169693977#0" departLane=best type="veh_passenger"/>
    <trip id="veh187" depart="22.82" from="169765163#2" to="169693830#10" departLane=best type="veh_passenger"/>
    <trip id="veh188" depart="22.94" from="-169695833#2" to="1396829968#8" departLane=best type="veh_passenger"/>
    <trip id="veh189" depart="23.06" from="-1147028266" to="-169764872" departLane=best type="veh_passenger"/>
    <trip id="veh190" depart="23.19" from="-169765172#0" to="1466994525" departLane=best type="veh_passenger"/>
    <trip id="veh191" depart="23.31" from="169693861#1" to="1209953760" departLane=best type="veh_passenger"/>
    <trip id="veh192" depart="23.43" from="-169765198#0" to="-169695740#1" departLane=best type="veh_passenger"/>
    <trip id="veh193" depart="23.55" from="-278977333#0" to="169765171#4" departLane=best type="veh_passenger"/>
    <trip id="veh194" depart="23.67" from="169764799#6" to="-169693972#0" departLane=best type="veh_passenger"/>
    <trip id="veh195" depart="23.80" from="-1395972513#1" to="1395972502#0" departLane=best type="veh_passenger" departSpeed=max/>
    <trip id="veh196" depart="23.92" from="169693830#18" to="-169765097#1" departLane=best type="veh_passenger"/>
    <trip id="veh197" depart="24.04" from="169764844#0" to="169695814#0" departLane=best type="veh_passenger" departSpeed=max/>
    <trip id="veh198" depart="24.16" from="169693917#4" to="-169695762#0" departLane=best type="veh_passenger"/>
    <trip id="veh199" depart="24.28" from="-169693906" to="-1191012148" departLane=best type="veh_passenger" departSpeed=max/>
    <trip id="veh200" depart="24.41" from="-169695657" to="1242122415" departLane=best type="veh_passenger"/>
    <trip id="veh201" depart="24.53" from="169765013#0" to="-1396829968#6" departLane=best type="veh_passenger" departSpeed=max/>
    <trip id="veh202" depart="24.65" from="-169765143" to="169693840#12" departLane=best type="veh_passenger" departSpeed=max/>
    <trip id="veh203" depart="24.77" from="-169693889" to="169695641#4" departLane=best type="veh_passenger" departSpeed=max/>
    <trip id="veh204" depart="24.89" from="1147257894" to="-169695802#2" departLane=best type="veh_passenger" departSpeed=max/>
    <trip id="veh205" depart="25.02" from="169693866" to="-1147257891#0" departLane=best type="veh_passenger" departSpeed=max/>
    <trip id="veh206" depart="25.14" from="169695761#0" to="169764799#1" departLane=best type="veh_passenger" departSpeed=max/>
    <trip id="veh207" depart="25.26" from="-1396189150#1" to="1147257888#1" departLane=best type="veh_passenger"/>
    <trip id="veh208" depart="25.38" from="-169693840#14" to="314250512#6" departLane=best type="veh_passenger"/>
    <trip id="veh209" depart="25.50" from="1209953012#1" to="-1395972506#3" departLane=best type="veh_passenger"/>
    <trip id="veh210" depart="25.63" from="-169695678" to="169765036" departLane=best type="veh_passenger" departSpeed=max/>
    <trip id="veh211" depart="25.75" from="-169765230#3" to="169764885" departLane=best type="veh_passenger"/>
    <trip id="veh212" depart="25.87" from="169693910" to="314250573#3" departLane=best type="veh_passenger"/>
    <trip id="veh213" depart="25.99" from="1427045469" to="278979602#2" departLane=best type="veh_passenger"/>
    <trip id="veh214" depart="26.11" from="169765144#0" to="169691941#1" departLane=best type="veh_passenger"/>
    <trip id="veh215" depart="26.24" from="169695657" to="125982851#6" departLane=best type="veh_passenger"/>
    <trip id="veh216" depart="26.36" from="169764906" to="1396829968#8" departLane=best type="veh_passenger" departSpeed=max/>
    <trip id="veh217" depart="26.48" from="169765151#3" to="169695794#3" departLane=best type="veh_passenger"/>
    <trip id="veh218" depart="26.60" from="-278977406" to="-169695836#9" departLane=best type="veh_passenger" departSpeed=max/>
    <trip id="veh219" depart="26.72" from="-169695672" to="169693848" departLane=best type="veh_passenger" departSpeed=max/>
    <trip id="veh220" depart="26.85" from="169695794#1" to="1395972513#1" departLane=best type="veh_passenger"/>
    <trip id="veh221" depart="26.97" from="169691937#5" to="-169764840#0" departLane=best type="veh_passenger"/>
    <trip id="veh222" depart="27.09" from="-1395972499#1" to="-169764863" departLane=best type="veh_passenger"/>
    <trip id="veh223" depart="27.21" from="-169695750" to="-169765044#1" departLane=best type="veh_passenger" departSpeed=max/>
    <trip id="veh224" depart="27.33" from="125936782#2" to="-169693892" departLane=best type="veh_passenger"/>
    <trip id="veh225" depart="27.46" from="-169694020#0" to="169694029#7" departLane=best type="veh_passenger"/>
    <trip id="veh226" depart="27.58" from="169694020#0" to="-1395972544#1" departLane=best type="veh_passenger"/>
    <trip id="veh227" depart="27.70" from="-169765132#0" to="1395972558#0" departLane=best type="veh_passenger"/>
    <trip id="veh228" depart="27.82" from="-169765145#0" to="-169695708" departLane=best type="veh_passenger"/>
    <trip id="veh229" depart="27.94" from="-169765149#6" to="169765176#5" departLane=best type="veh_passenger"/>
    <trip id="veh230" depart="28.07" from="1396829980#3" to="169695641#10" departLane=best type="veh_passenger"/>
    <trip id="veh231" depart="28.19" from="169765032#0" to="169764795#11" departLane=best type="veh_passenger"/>
    <trip id="veh232" depart="28.31" from="-169765039#0" to="-1147257891#2" departLane=best type="veh_passenger"/>
    <trip id="veh233" depart="28.43" from="-169764954" to="169695815#4" departLane=best type="veh_passenger"/>
    <trip id="veh234" depart="28.55" from="169765025#0" to="278979620#1" departLane=best type="veh_passenger" departSpeed=max/>
    <trip id="veh235" depart="28.68" from="-169765149#16" to="169695803#0" departLane=best type="veh_passenger"/>
    <trip id="veh236" depart="28.80" from="1395972495#0" to="169691899#5" departLane=best type="veh_passenger"/>
    <trip id="veh237" depart="28.92" from="-169693972#0" to="-169695754#0" departLane=best type="veh_passenger"/>
    <trip id="veh238" depart="29.04" from="-169765183#2" to="-1242124486" departLane=best type="veh_passenger" departSpeed=max/>
    <trip id="veh239" depart="29.16" from="-169764894" to="169693984#2" departLane=best type="veh_passenger" departSpeed=max/>
    <trip id="veh240" depart="29.29" from="-169765115" to="-169693958#0" departLane=best type="veh_passenger"/>
    <trip id="veh241" depart="29.41" from="-278977098#0" to="-169693849" departLane=best type="veh_passenger"/>
    <trip id="veh242" depart="29.53" from="169691932#2" to="-1241919973" departLane=best type="veh_passenger"/>
    <trip id="veh243" depart="29.65" from="-169765082" to="1396829997" departLane=best type="veh_passenger" departSpeed=max/>
    <trip id="veh244" depart="29.77" from="-1147543892#6" to="169693863" departLane=best type="veh_passenger" departSpeed=max/>
    <trip id="veh245" depart="29.90" from="-1396830043#1" to="1209953014#3-AddedOffRampEdge" departLane=best type="veh_passenger"/>
    <trip id="veh246" depart="30.02" from="-1242125368" to="-169765195#1" departLane=best type="veh_passenger" departSpeed=max/>
    <trip id="veh247" depart="30.14" from="169695786#0" to="-169765195#1" departLane=best type="veh_passenger" departSpeed=max/>