<?xml version="1.0" encoding="UTF-8"?>

<!-- generated on 2026-04-04 12:53:27.299659 by Eclipse SUMO randomTrips.py v1_26_0+0000-fa7df22d7f1
<configuration>
    <net-file value="osm.net.xml.gz"/>
    <output-trip-file value="osm.passenger.trips.xml"/>
    <prefix value="veh"/>
    <trip-attributes value="departLane=&quot;best&quot;"/>
    <fringe-start-attributes value="departSpeed=&quot;max&quot;"/>
    <vehicle-class value="passenger"/>
    <lanes value="True"/>
    <fringe-factor value="5"/>
    <allow-fringe.min-length value="1000.0"/>
    <edge-permission value="passenger"/>
    <via-edge-types value="highway.motorway,highway.motorway_link,highway.trunk_link,highway.primary_link,highway.secondary_link,highway.tertiary_link"/>
    <min-distance value="300.0"/>
    <min-distance.fringe value="10.0"/>
    <remove-loops value="True"/>
    <insertion-density value="40.0"/>
</configuration>
-->

<routes xmlns:xsi="http://www.w3.org/2001/XMLSchema-instance" xsi:noNamespaceSchemaLocation="http://sumo.dlr.de/xsd/routes_file.xsd">
    <vType id="veh_passenger" vClass="passenger"/>
    <trip id="veh0" depart="0.00" from="1064321266" to="-1063241097#0" departLane="best" type="veh_passenger" departSpeed="max"/>
    <trip id="veh1" depart="0.33" from="-1065104002#1" to="-1065096527" departLane="best" type="veh_passenger" departSpeed="max"/>
    <trip id="veh2" depart="0.66" from="1065104001" to="1065031674" departLane="best" type="veh_passenger" departSpeed="max"/>
    <trip id="veh3" depart="0.99" from="196109351" to="-1063487011#0" departLane="best" type="veh_passenger" departSpeed="max"/>
    <trip id="veh4" depart="1.31" from="-196108248#4" to="-1063241104" departLane="best" type="veh_passenger"/>
    <trip id="veh5" depart="1.64" from="-1065037995#1" to="1063238639#1" departLane="best" type="veh_passenger" departSpeed="max"/>
    <trip id="veh6" depart="1.97" from="-1063238641#1" to="-1065038790#1" departLane="best" type="veh_passenger"/>
    <trip id="veh7" depart="2.30" from="1064331414#0" to="1063254787#1" departLane="best" type="veh_passenger" departSpeed="max"/>
    <trip id="veh8" depart="2.63" from="-1065037997#1" to="1063487014" departLane="best" type="veh_passenger" departSpeed="max"/>
    <trip id="veh9" depart="2.96" from="195963459#4" to="-1063236455#6" departLane="best" type="veh_passenger"/>
    <trip id="veh10" depart="3.28" from="195963450" to="1065037995#1" departLane="best" type="veh_passenger"/>
    <trip id="veh11" depart="3.61" from="-1065428378" to="-1065026546" departLane="best" type="veh_passenger" departSpeed="max"/>
    <trip id="veh12" depart="3.94" from="196305667#5" to="-195991615#0" departLane="best" type="veh_passenger"/>
    <trip id="veh13" depart="4.27" from="-1063474017#1" to="-1063489551#23" departLane="best" type="veh_passenger" departSpeed="max"/>
    <trip id="veh14" depart="4.60" from="195996828#0" to="1063498894" departLane="best" type="veh_passenger" departSpeed="max"/>
    <trip id="veh15" depart="4.93" from="195963457#0" to="1065094856#0" departLane="best" type="veh_passenger"/>
    <trip id="veh16" depart="5.25" from="1063245705#0" to="196305677#3" departLane="best" type="veh_passenger"/>
    <trip id="veh17" depart="5.58" from="-195959770#20" to="1063256820#1" departLane="best" type="veh_passenger"/>
    <trip id="veh18" depart="5.91" from="195971669#1" to="1064308014#0" departLane="best" type="veh_passenger"/>
    <trip id="veh19" depart="6.24" from="196108253#1" to="1063476110#1" departLane="best" type="veh_passenger"/>
    <trip id="veh20" depart="6.57" from="1065041875#0" to="-1063252559" departLane="best" type="veh_passenger"/>
    <trip id="veh21" depart="6.90" from="-1065041877" to="-195802030#2" departLane="best" type="veh_passenger" departSpeed="max"/>
    <trip id="veh22" depart="7.22" from="-1063470651#1" to="-1065104001" departLane="best" type="veh_passenger"/>
    <trip id="veh23" depart="7.55" from="-1063485103#1" to="-195801527#0" departLane="best" type="veh_passenger"/>
    <trip id="veh24" depart="7.88" from="1064321262#0" to="-196108262#1" departLane="best" type="veh_passenger"/>
    <trip id="veh25" depart="8.21" from="-195802030#16" to="-1065077053#1" departLane="best" type="veh_passenger"/>
    <trip id="veh26" depart="8.54" from="-1065103240#5" to="196167243#0" departLane="best" type="veh_passenger" departSpeed="max"/>
    <trip id="veh27" depart="8.87" from="1064331412#0" to="1063503066" departLane="best" type="veh_passenger" departSpeed="max"/>
    <trip id="veh28" depart="9.19" from="-1064331603#4" to="1065093991#1" departLane="best" type="veh_passenger"/>
    <trip id="veh29" depart="9.52" from="-1064330834" to="-196109341#1" departLane="best" type="veh_passenger" departSpeed="max"/>
    <trip id="veh30" depart="9.85" from="44366886#18" to="1064321263#9" departLane="best" type="veh_passenger"/>
    <trip id="veh31" depart="10.18" from="1063254786" to="1065034082#1" departLane="best" type="veh_passenger" departSpeed="max"/>
    <trip id="veh32" depart="10.51" from="195991615#2" to="1065414270" departLane="best" type="veh_passenger"/>
    <trip id="veh33" depart="10.84" from="-1065041878" to="-1063245708" departLane="best" type="veh_passenger" departSpeed="max"/>
    <trip id="veh34" depart="11.16" from="-1065418825#5" to="-195801511#6" departLane="best" type="veh_passenger"/>
    <trip id="veh35" depart="11.49" from="-1065034332" to="196167256#1" departLane="best" type="veh_passenger" departSpeed="max"/>
    <trip id="veh36" depart="11.82" from="1065024401#0" to="-196109509#7" departLane="best" type="veh_passenger" departSpeed="max"/>
    <trip id="veh37" depart="12.15" from="196167250" to="-196305667#4" departLane="best" type="veh_passenger" departSpeed="max"/>
    <trip id="veh38" depart="12.48" from="-1065098632" to="-1065418823" departLane="best" type="veh_passenger" departSpeed="max"/>
    <trip id="veh39" depart="12.81" from="1063256813#0" to="-195801507#11" departLane="best" type="veh_passenger" departSpeed="max"/>
    <trip id="veh40" depart="13.13" from="1063485103#0" to="196108247#3" departLane="best" type="veh_passenger"/>
    <trip id="veh41" depart="13.46" from="-195971663#1" to="-1065094857#2" departLane="best" type="veh_passenger"/>
    <trip id="veh42" depart="13.79" from="-1063472740" to="-1063252560" departLane="best" type="veh_passenger" departSpeed="max"/>
    <trip id="veh43" depart="14.12" from="-1063487012#2" to="1064319453#2" departLane="best" type="veh_passenger"/>
    <trip id="veh44" depart="14.45" from="195802030#13" to="-196167259#0" departLane="best" type="veh_passenger"/>
    <trip id="veh45" depart="14.78" from="-1063254785#1" to="-196109342#5" departLane="best" type="veh_passenger" departSpeed="max"/>
    <trip id="veh46" depart="15.11" from="196306917" to="195963459#0" departLane="best" type="veh_passenger" departSpeed="max"/>
    <trip id="veh47" depart="15.43" from="-1063236462#1" to="1065077054#0" departLane="best" type="veh_passenger" departSpeed="max"/>
    <trip id="veh48" depart="15.76" from="1065034077" to="1063252563#1" departLane="best" type="veh_passenger" departSpeed="max"/>
    <trip id="veh49" depart="16.09" from="-1065103240#5" to="1064321264#2" departLane="best" type="veh_passenger" departSpeed="max"/>
    <trip id="veh50" depart="16.42" from="-1063489543#2" to="-196168179#0" departLane="best" type="veh_passenger"/>
    <trip id="veh51" depart="16.75" from="-196158510#2" to="196167754#2" departLane="best" type="veh_passenger"/>
    <trip id="veh52" depart="17.08" from="196109333#0" to="-195801507#3" departLane="best" type="veh_passenger" departSpeed="max"/>
    <trip id="veh53" depart="17.40" from="-196305677#9" to="-1065034080" departLane="best" type="veh_passenger"/>
    <trip id="veh54" depart="17.73" from="196167247#0" to="195964794#5" departLane="best" type="veh_passenger"/>
    <trip id="veh55" depart="18.06" from="-1065414270" to="1064321263#7" departLane="best" type="veh_passenger" departSpeed="max"/>
    <trip id="veh56" depart="18.39" from="1063503068" to="-1065026540" departLane="best" type="veh_passenger" departSpeed="max"/>
    <trip id="veh57" depart="18.72" from="-1063236450#0" to="-195971668#0" departLane="best" type="veh_passenger"/>
    <trip id="veh58" depart="19.05" from="-1063236471#1" to="196158510#4" departLane="best" type="veh_passenger" departSpeed="max"/>
    <trip id="veh59" depart="19.37" from="196109338#2" to="195801514#9" departLane="best" type="veh_passenger"/>
    <trip id="veh60" depart="19.70" from="-1065418816#2" to="-1063256819#1" departLane="best" type="veh_passenger" departSpeed="max"/>
    <trip id="veh61" depart="20.03" from="196109336#1" to="196167259#2" departLane="best" type="veh_passenger"/>
    <trip id="veh62" depart="20.36" from="-1063472733" to="1063236456#5" departLane="best" type="veh_passenger" departSpeed="max"/>
    <trip id="veh63" depart="20.69" from="195801507#1" to="-1064319558" departLane="best" type="veh_passenger"/>
    <trip id="veh64" depart="21.02" from="-196167746#2" to="1063256813#1" departLane="best" type="veh_passenger"/>
    <trip id="veh65" depart="21.34" from="-1065098632" to="195964796#6" departLane="best" type="veh_passenger" departSpeed="max"/>
    <trip id="veh66" depart="21.67" from="-196108252#1" to="-1065077058" departLane="best" type="veh_passenger"/>
    <trip id="veh67" depart="22.00" from="1063245711#0" to="1065094856#1" departLane="best" type="veh_passenger"/>
    <trip id="veh68" depart="22.33" from="-1065033396#1" to="-195964794#1" departLane="best" type="veh_passenger" departSpeed="max"/>
    <trip id="veh69" depart="22.66" from="-196109341#3" to="1063245707#1" departLane="best" type="veh_passenger"/>
    <trip id="veh70" depart="22.99" from="-1063490603" to="-1065098630" departLane="best" type="veh_passenger" departSpeed="max"/>
    <trip id="veh71" depart="23.31" from="-1065428376" to="1063487011#0" departLane="best" type="veh_passenger" departSpeed="max"/>
    <trip id="veh72" depart="23.64" from="-1065046636" to="-1065095468" departLane="best" type="veh_passenger" departSpeed="max"/>
    <trip id="veh73" depart="23.97" from="-1063256818" to="1064319456" departLane="best" type="veh_passenger" departSpeed="max"/>
    <trip id="veh74" depart="24.30" from="-1065041878" to="196108262#2" departLane="best" type="veh_passenger" departSpeed="max"/>
    <trip id="veh75" depart="24.63" from="196108248#9" to="-1063472734#2" departLane="best" type="veh_passenger"/>
    <trip id="veh76" depart="24.96" from="-1065069065#3" to="1065031669#2" departLane="best" type="veh_passenger"/>
    <trip id="veh77" depart="25.28" from="-1065036809#1" to="-1064321263#1" departLane="best" type="veh_passenger"/>
    <trip id="veh78" depart="25.61" from="196168181#12" to="1063472741" departLane="best" type="veh_passenger"/>
    <trip id="veh79" depart="25.94" from="-196167740" to="1065418816#2" departLane="best" type="veh_passenger"/>
    <trip id="veh80" depart="26.27" from="195963458" to="-1065037696" departLane="best" type="veh_passenger" departSpeed="max"/>
    <trip id="veh81" depart="26.60" from="-196108253#0" to="-196305677#6" departLane="best" type="veh_passenger"/>
    <trip id="veh82" depart="26.93" from="1065102544" to="1065031671#9" departLane="best" type="veh_passenger" departSpeed="max"/>
    <trip id="veh83" depart="27.25" from="314659720#31" to="-1063489554#0" departLane="best" type="veh_passenger"/>
    <trip id="veh84" depart="27.58" from="-195971665#3" to="-195991615#2" departLane="best" type="veh_passenger" departSpeed="max"/>
    <trip id="veh85" depart="27.91" from="196108253#1" to="-1065418828#0" departLane="best" type="veh_passenger"/>
    <trip id="veh86" depart="28.24" from="-1065031669#2" to="-196304556" departLane="best" type="veh_passenger" departSpeed="max"/>
    <trip id="veh87" depart="28.57" from="-196108248#4" to="-195801527#0" departLane="best" type="veh_passenger"/>
    <trip id="veh88" depart="28.90" from="-1065093990" to="196109509#8" departLane="best" type="veh_passenger" departSpeed="max"/>
    <trip id="veh89" depart="29.22" from="-196109347#4" to="195963459#2" departLane="best" type="veh_passenger"/>
    <trip id="veh90" depart="29.55" from="1063252558#1" to="-1063252566#0" departLane="best" type="veh_passenger"/>
    <trip id="veh91" depart="29.88" from="196305682#1" to="196158502#5" departLane="best" type="veh_passenger"/>
    <trip id="veh92" depart="30.21" from="196108229#0" to="-1065031669#0" departLane="best" type="veh_passenger"/>
    <trip id="veh93" depart="30.54" from="-196168181#8" to="-1065079386#0" departLane="best" type="veh_passenger"/>
    <trip id="veh94" depart="30.87" from="-195971664#6" to="-1063256820#0" departLane="best" type="veh_passenger" departSpeed="max"/>
    <trip id="veh95" depart="31.20" from="-195959770#23" to="314659720#33" departLane="best" type="veh_passenger"/>
    <trip id="veh96" depart="31.52" from="-1065103239" to="1065418816#1" departLane="best" type="veh_passenger"/>
    <trip id="veh97" depart="31.85" from="-196158513#2" to="-196167259#1" departLane="best" type="veh_passenger"/>
    <trip id="veh98" depart="32.18" from="1063252566#0" to="1065075767" departLane="best" type="veh_passenger" departSpeed="max"/>
    <trip id="veh99" depart="32.51" from="-1064319457#5" to="-195959770#1" departLane="best" type="veh_passenger" departSpeed="max"/>
    <trip id="veh100" depart="32.84" from="196305682#0" to="1063485102#0" departLane="best" type="veh_passenger"/>
    <trip id="veh101" depart="33.17" from="1063245713#0" to="1065103243" departLane="best" type="veh_passenger" departSpeed="max"/>
    <trip id="veh102" depart="33.49" from="-196306921#1" to="195802031#3" departLane="best" type="veh_passenger"/>
    <trip id="veh103" depart="33.82" from="-1064319851#0" to="196304537#0" departLane="best" type="veh_passenger"/>
    <trip id="veh104" depart="34.15" from="-1063470651#2" to="-1065036807" departLane="best" type="veh_passenger"/>
    <trip id="veh105" depart="34.48" from="1063489545" to="1065031672#2" departLane="best" type="veh_passenger" departSpeed="max"/>
    <trip id="veh106" depart="34.81" from="-1065051340" to="-1064310258" departLane="best" type="veh_passenger" departSpeed="max"/>
    <trip id="veh107" depart="35.14" from="196109350#1" to="-1065418822#0" departLane="best" type="veh_passenger"/>
    <trip id="veh108" depart="35.46" from="1063489545" to="1064308014#5" departLane="best" type="veh_passenger" departSpeed="max"/>
    <trip id="veh109" depart="35.79" from="-196108237" to="1063485106#0" departLane="best" type="veh_passenger"/>
    <trip id="veh110" depart="36.12" from="1063236475#1" to="196167241#1" departLane="best" type="veh_passenger"/>
    <trip id="veh111" depart="36.45" from="-1065033398" to="1065069064#2" departLane="best" type="veh_passenger" departSpeed="max"/>
    <trip id="veh112" depart="36.78" from="-1065069065#6" to="-196109509#8" departLane="best" type="veh_passenger"/>
    <trip id="veh113" depart="37.11" from="1065031669#1" to="-195959770#27" departLane="best" type="veh_passenger"/>
    <trip id="veh114" depart="37.43" from="-1065418825#7" to="1065104002#1" departLane="best" type="veh_passenger" departSpeed="max"/>
    <trip id="veh115" depart="37.76" from="-1063256820#1" to="-196305667#0" departLane="best" type="veh_passenger" departSpeed="max"/>
    <trip id="veh116" depart="38.09" from="-1063256913#0" to="-1065078501" departLane="best" type="veh_passenger"/>
    <trip id="veh117" depart="38.42" from="-1065103239" to="196158516#6" departLane="best" type="veh_passenger"/>
    <trip id="veh118" depart="38.75" from="-195802030#11" to="-1065028197" departLane="best" type="veh_passenger"/>
    <trip id="veh119" depart="39.08" from="195971671#0" to="1065038790#3" departLane="best" type="veh_passenger" departSpeed="max"/>
    <trip id="veh120" depart="39.40" from="1065020425#2" to="-1063236456#0" departLane="best" type="veh_passenger"/>
    <trip id="veh121" depart="39.73" from="195964796#2" to="-195959770#23" departLane="best" type="veh_passenger"/>
    <trip id="veh122" depart="40.06" from="1065029995" to="196167247#7" departLane="best" type="veh_passenger" departSpeed="max"/>
    <trip id="veh123" depart="40.39" from="-1063504121" to="-1064308016#0" departLane="best" type="veh_passenger" departSpeed="max"/>
    <trip id="veh124" depart="40.72" from="-1063487008" to="1063256913#1" departLane="best" type="veh_passenger"/>
    <trip id="veh125" depart="41.05" from="-1065103999" to="1063498896#0" departLane="best" type="veh_passenger" departSpeed="max"/>
    <trip id="veh126" depart="41.37" from="1065079386#0" to="-1065069064#0" departLane="best" type="veh_passenger"/>
    <trip id="veh127" depart="41.70" from="1064319852" to="-195801507#5" departLane="best" type="veh_passenger"/>
    <trip id="veh128" depart="42.03" from="195995976#4" to="-1063489547" departLane="best" type="veh_passenger"/>
    <trip id="veh129" depart="42.36" from="-196108253#0" to="-195801522#3" departLane="best" type="veh_passenger"/>
    <trip id="veh130" depart="42.69" from="-1063236455#1" to="1065410378#0" departLane="best" type="veh_passenger"/>
    <trip id="veh131" depart="43.02" from="1064321263#5" to="-195801507#0" departLane="best" type="veh_passenger"/>
    <trip id="veh132" depart="43.34" from="1065128063" to="1063256819#1" departLane="best" type="veh_passenger" departSpeed="max"/>
    <trip id="veh133" depart="43.67" from="-196108259#4" to="-1063236460#0" departLane="best" type="veh_passenger" departSpeed="max"/>
    <trip id="veh134" depart="44.00" from="-1063459203" to="195971669#3" departLane="best" type="veh_passenger" departSpeed="max"/>
    <trip id="veh135" depart="44.33" from="196158513#0" to="1063254787#1" departLane="best" type="veh_passenger" departSpeed="max"/>
    <trip id="veh136" depart="44.66" from="195971672#0" to="1063485105#1" departLane="best" type="veh_passenger" departSpeed="max"/>
    <trip id="veh137" depart="44.99" from="-1065418817" to="196108248#5" departLane="best" type="veh_passenger" departSpeed="max"/>
    <trip id="veh138" depart="45.32" from="195802031#10" to="195963457#2" departLane="best" type="veh_passenger"/>
    <trip id="veh139" depart="45.64" from="196158505" to="-1065077055" departLane="best" type="veh_passenger"/>
    <trip id="veh140" depart="45.97" from="-1065093990" to="-1063498897#0" departLane="best" type="veh_passenger" departSpeed="max"/>
    <trip id="veh141" depart="46.30" from="195801522#11" to="195971669#7" departLane="best" type="veh_passenger"/>
    <trip id="veh142" depart="46.63" from="-195971669#6" to="1064308623#1" departLane="best" type="veh_passenger"/>
    <trip id="veh143" depart="46.96" from="-1064319457#5" to="196158513#1" departLane="best" type="veh_passenger" departSpeed="max"/>
    <trip id="veh144" depart="47.29" from="196108257#0" to="196305682#4" departLane="best" type="veh_passenger"/>
    <trip id="veh145" depart="47.61" from="-1063238639#0" to="1065096519" departLane="best" type="veh_passenger"/>
    <trip id="veh146" depart="47.94" from="-1065425637#1" to="196158515#4" departLane="best" type="veh_passenger"/>
    <trip id="veh147" depart="48.27" from="195959770#19" to="195963462#2" departLane="best" type="veh_passenger"/>
    <trip id="veh148" depart="48.60" from="195963462#2" to="-195801511#12" departLane="best" type="veh_passenger"/>
    <trip id="veh149" depart="48.93" from="195801531#2" to="-1064261481" departLane="best" type="veh_passenger"/>
    <trip id="veh150" depart="49.26" from="196109328#0" to="195959770#8" departLane="best" type="veh_passenger" departSpeed="max"/>
    <trip id="veh151" depart="49.58" from="-1065038538" to="1065428377" departLane="best" type="veh_passenger" departSpeed="max"/>
    <trip id="veh152" depart="49.91" from="-196167241#4" to="-195963459#2" departLane="best" type="veh_passenger" departSpeed="max"/>
    <trip id="veh153" depart="50.24" from="195802031#0" to="-1065103240#3" departLane="best" type="veh_passenger" departSpeed="max"/>
    <trip id="veh154" depart="50.57" from="-1063238637#1" to="-1065037997#0" departLane="best" type="veh_passenger"/>
    <trip id="veh155" depart="50.90" from="-1065422945" to="195963462#3" departLane="best" type="veh_passenger" departSpeed="max"/>
    <trip id="veh156" depart="51.23" from="196305679#1" to="-195801527#11" departLane="best" type="veh_passenger"/>
    <trip id="veh157" depart="51.55" from="1064321270" to="-196158505" departLane="best" type="veh_passenger" departSpeed="max"/>
    <trip id="veh158" depart="51.88" from="314659720#2" to="1063252563#1" departLane="best" type="veh_passenger"/>
    <trip id="veh159" depart="52.21" from="196304537#0" to="-1064308016#0" departLane="best" type="veh_passenger"/>
    <trip id="veh160" depart="52.54" from="196306917" to="-1065034080" departLane="best" type="veh_passenger" departSpeed="max"/>
    <trip id="veh161" depart="52.87" from="196305675#0" to="-195801510#0" departLane="best" type="veh_passenger" departSpeed="max"/>
    <trip id="veh162" depart="53.20" from="-1063487010#1" to="-196168178#1" departLane="best" type="veh_passenger" departSpeed="max"/>
    <trip id="veh163" depart="53.52" from="1065098630" to="-195964796#3" departLane="best" type="veh_passenger" departSpeed="max"/>
    <trip id="veh164" depart="53.85" from="1063498897#0" to="1063241097#4" departLane="best" type="veh_passenger" departSpeed="max"/>
    <trip id="veh165" depart="54.18" from="-1065095466" to="1065046636" departLane="best" type="veh_passenger" departSpeed="max"/>
    <trip id="veh166" depart="54.51" from="-1063236452#1" to="196158502#1" departLane="best" type="veh_passenger"/>
    <trip id="veh167" depart="54.84" from="1063245709" to="1065077051#1" departLane="best" type="veh_passenger" departSpeed="max"/>
    <trip id="veh168" depart="55.17" from="1065131742" to="1065031670#3" departLane="best" type="veh_passenger"/>
    <trip id="veh169" depart="55.49" from="-195801531#0" to="-1063472732" departLane="best" type="veh_passenger"/>
    <trip id="veh170" depart="55.82" from="1065029995" to="-195971671#1" departLane="best" type="veh_passenger" departSpeed="max"/>
    <trip id="veh171" depart="56.15" from="-1065418823" to="195802030#17" departLane="best" type="veh_passenger"/>
    <trip id="veh172" depart="56.48" from="1065093992" to="-195959770#3" departLane="best" type="veh_passenger" departSpeed="max"/>
    <trip id="veh173" depart="56.81" from="-1065418818" to="-196158515#5" departLane="best" type="veh_passenger" departSpeed="max"/>
    <trip id="veh174" depart="57.14" from="-195971665#2" to="-195959770#0" departLane="best" type="veh_passenger"/>
    <trip id="veh175" depart="57.46" from="-1063500724" to="-196167256#2" departLane="best" type="veh_passenger" departSpeed="max"/>
    <trip id="veh176" depart="57.79" from="196304538" to="1065031674" departLane="best" type="veh_passenger" departSpeed="max"/>
    <trip id="veh177" depart="58.12" from="196158510#2" to="1063524610#0" departLane="best" type="veh_passenger"/>
    <trip id="veh178" depart="58.45" from="-1065418810" to="1063254790" departLane="best" type="veh_passenger" departSpeed="max"/>
    <trip id="veh179" depart="58.78" from="-1063213191#1" to="-195802028#8" departLane="best" type="veh_passenger"/>
    <trip id="veh180" depart="59.11" from="-196108262#3" to="1063485102#1" departLane="best" type="veh_passenger" departSpeed="max"/>
    <trip id="veh181" depart="59.44" from="-196109345#1" to="-1065079386#0" departLane="best" type="veh_passenger"/>
    <trip id="veh182" depart="59.76" from="-196167741#2" to="196108253#5" departLane="best" type="veh_passenger"/>
    <trip id="veh183" depart="60.09" from="195802031#1" to="-1065031671#5" departLane="best" type="veh_passenger"/>
    <trip id="veh184" depart="60.42" from="1064319559" to="-195971676#1" departLane="best" type="veh_passenger"/>
    <trip id="veh185" depart="60.75" from="195964799#0" to="1065104000" departLane="best" type="veh_passenger"/>
    <trip id="veh186" depart="61.08" from="1065031671#0" to="-1065098630" departLane="best" type="veh_passenger"/>
    <trip id="veh187" depart="61.41" from="-1065031675#2" to="-1063239036#1" departLane="best" type="veh_passenger" departSpeed="max"/>
    <trip id="veh188" depart="61.73" from="-1065077057" to="-196306924#0" departLane="best" type="veh_passenger"/>
    <trip id="veh189" depart="62.06" from="196108229#4" to="-1063472738#1" departLane="best" type="veh_passenger"/>
    <trip id="veh190" depart="62.39" from="-195991615#9" to="1064319455#4" departLane="best" type="veh_passenger"/>
    <trip id="veh191" depart="62.72" from="-1065031671#9" to="1065037698" departLane="best" type="veh_passenger" departSpeed="max"/>
    <trip id="veh192" depart="63.05" from="-196304575#7" to="-1065414268" departLane="best" type="veh_passenger"/>
    <trip id="veh193" depart="63.38" from="1065026540" to="-1063236455#1" departLane="best" type="veh_passenger" departSpeed="max"/>
    <trip id="veh194" depart="63.70" from="-1065024400" to="196168181#12" departLane="best" type="veh_passenger" departSpeed="max"/>
    <trip id="veh195" depart="64.03" from="1063236465" to="-1063252566#0" departLane="best" type="veh_passenger"/>
    <trip id="veh196" depart="64.36" from="-1065093990" to="195802030#18" departLane="best" type="veh_passenger" departSpeed="max"/>
    <trip id="veh197" depart="64.69" from="-196158515#7" to="1065422937#9" departLane="best" type="veh_passenger"/>
    <trip id="veh198" depart="65.02" from="1065030545" to="44366886#11" departLane="best" type="veh_passenger"/>
    <trip id="veh199" depart="65.35" from="1063489545" to="196167746#3" departLane="best" type="veh_passenger" departSpeed="max"/>
    <trip id="veh200" depart="65.67" from="196109350#6" to="1063504120" departLane="best" type="veh_passenger"/>
    <trip id="veh201" depart="66.00" from="1065093992" to="1063238639#0" departLane="best" type="veh_passenger" departSpeed="max"/>
    <trip id="veh202" depart="66.33" from="195971669#6" to="1063254790" departLane="best" type="veh_passenger"/>
    <trip id="veh203" depart="66.66" from="196158502#1" to="1065103240#5" departLane="best" type="veh_passenger"/>
    <trip id="veh204" depart="66.99" from="-196167746#0" to="-1065435983#0" departLane="best" type="veh_passenger"/>
    <trip id="veh205" depart="67.32" from="-1065079386#1" to="1064321263#0" departLane="best" type="veh_passenger"/>
    <trip id="veh206" depart="67.64" from="195801507#1" to="1063245712#1" departLane="best" type="veh_passenger"/>
    <trip id="veh207" depart="67.97" from="1064319455#1" to="-195801520#3" departLane="best" type="veh_passenger"/>
    <trip id="veh208" depart="68.30" from="-1063470351" to="-195802028#2" departLane="best" type="veh_passenger" departSpeed="max"/>
    <trip id="veh209" depart="68.63" from="-1065103997" to="-195971664#0" departLane="best" type="veh_passenger" departSpeed="max"/>
    <trip id="veh210" depart="68.96" from="1063245711#3" to="-1064321270" departLane="best" type="veh_passenger"/>
    <trip id="veh211" depart="69.29" from="1065053596" to="-1063472727" departLane="best" type="veh_passenger" departSpeed="max"/>
    <trip id="veh212" depart="69.61" from="-195995976#6" to="-1065071632" departLane="best" type="veh_passenger"/>
    <trip id="veh213" depart="69.94" from="-196108241#1" to="196108260#1" departLane="best" type="veh_passenger"/>
    <trip id="veh214" depart="70.27" from="1063485101#0" to="1065037697" departLane="best" type="veh_passenger" departSpeed="max"/>
    <trip id="veh215" depart="70.60" from="196108247#2" to="1065113192" departLane="best" type="veh_passenger"/>
    <trip id="veh216" depart="70.93" from="-195959770#6" to="-1063236455#2" departLane="best" type="veh_passenger"/>
    <trip id="veh217" depart="71.26" from="-195801514#12" to="1065104003" departLane="best" type="veh_passenger"/>
    <trip id="veh218" depart="71.58" from="196108243" to="196167754#2" departLane="best" type="veh_passenger" departSpeed="max"/>
    <trip id="veh219" depart="71.91" from="-196108236#2" to="1065103243" departLane="best" type="veh_passenger"/>
    <trip id="veh220" depart="72.24" from="-1065037997#1" to="-1065094858" departLane="best" type="veh_passenger" departSpeed="max"/>
    <trip id="veh221" depart="72.57" from="-196109338#1" to="-1063241104" departLane="best" type="veh_passenger"/>
    <trip id="veh222" depart="72.90" from="-1065428372" to="1065031677#0" departLane="best" type="veh_passenger" departSpeed="max"/>
    <trip id="veh223" depart="73.23" from="-195971667#1" to="-1065030548" departLane="best" type="veh_passenger"/>
    <trip id="veh224" depart="73.56" from="-196167255#1" to="-1064319557" departLane="best" type="veh_passenger"/>
    <trip id="veh225" depart="73.88" from="1064308627#1" to="-1063241101" departLane="best" type="veh_passenger"/>
    <trip id="veh226" depart="74.21" from="-195964796#1" to="1063472730#0" departLane="best" type="veh_passenger"/>
    <trip id="veh227" depart="74.54" from="-1063238642#3" to="1064330834" departLane="best" type="veh_passenger"/>
    <trip id="veh228" depart="74.87" from="-1063523665" to="-196305670" departLane="best" type="veh_passenger" departSpeed="max"/>
    <trip id="veh229" depart="75.20" from="-1063250983" to="-196109340" departLane="best" type="veh_passenger" departSpeed="max"/>
    <trip id="veh230" depart="75.53" from="-1065036804#1" to="-195971669#6" departLane="best" type="veh_passenger" departSpeed="max"/>
    <trip id="veh231" depart="75.85" from="1065428373" to="-196109340" departLane="best" type="veh_passenger"/>
    <trip id="veh232" depart="76.18" from="1065418827" to="195801516#0" departLane="best" type="veh_passenger"/>
    <trip id="veh233" depart="76.51" from="-1065094856#1" to="-1063485107" departLane="best" type="veh_passenger"/>
    <trip id="veh234" depart="76.84" from="-1063236471#1" to="1063252568#1" departLane="best" type="veh_passenger" departSpeed="max"/>