<?xml version="1.0" encoding="UTF-8"?>

<!-- generated on 2026-02-17 12:43:05.845212 by randomTrips.py v1_24_0+0000-b72eb3fabc8
<configuration>
    <net-file value="osm.net.xml"/>
    <output-trip-file value="generated/client1.trips.xml"/>
    <route-file value="generated/client1.rou.xml"/>
    <fringe-factor value="5"/>
    <seed value="11"/>
    <period value="0.8"/>
</configuration>
-->

<!-- generated on 2026-02-17 12:42:39 by Eclipse SUMO duarouter Version 1.24.0
<duarouterConfiguration xmlns:xsi="http://www.w3.org/2001/XMLSchema-instance" xsi:noNamespaceSchemaLocation="http://sumo.dlr.de/xsd/duarouterConfiguration.xsd">

    <input>
        <net-file value="osm.net.xml"/>
        <route-files value="generated/client1.trips.xml"/>
    </input>

    <output>
        <output-file value="generated/client1.rou.xml"/>
        <alternatives-output value="NUL"/>
    </output>

    <time>
        <begin value="0"/>
        <end value="3600"/>
    </time>

    <report>
        <no-warnings value="true"/>
        <ignore-errors value="true"/>
        <no-step-log value="true"/>
    </report>

</duarouterConfiguration>
-->

<routes xmlns:xsi="http://www.w3.org/2001/XMLSchema-instance" xsi:noNamespaceSchemaLocation="http://sumo.dlr.de/xsd/routes_file.xsd">
    <vehicle id="0" depart="0.00">
        <route edges="-47652182#1 -47652182#0 47652180#1 47652180#2 47652180#4 47652180#5 47652180#6 47652180#7 782592559#6 39451654#0 39451654#1 782404743#0 782404743#1 782404743#2 1381051643 1190366167#0 1190366167#1 1190366167#2"/>
    </vehicle>
    <vehicle id="1" depart="0.80">
        <route edges="423830489 202969533#31 1085586825 56723584#10 56723584#11 56723584#12 56723584#13 56723584#14 56723584#15 56723584#16 56723584#17 56723584#18 56723584#19 56723584#20 56723584#21 56723584#22 56723584#23 56723584#24 56723584#25 56723584#26 56723584#27 56723584#28 56723584#29 56723584#30 56723584#31 56723584#32 56723584#33 56723584#34 56723584#35 56723584#36 56723584#37 56723584#38 56723584#39 56723584#40 56723584#41 169033823#0 169033823#1 36801848#2 36801848#3 36801848#4 36801848#5 36801848#6 36801848#7 585189785#0 585189785#2 585189785#2-AddedOffRampEdge 815127176 59035955#0 59035955#1 59035955#2 59035955#3 59035955#4 59035955#5 59035955#6 189430873#8 189430873#9 189430873#10 189430873#1 189430938#0 189430938#0-AddedOffRampEdge 189430938#1 189430938#3 189430938#4-AddedOnRampEdge 189430938#4 189430938#5 189430938#6 189430938#7 189430938#8 189430938#9 36804381#4 36804381#5 36804381#6 -1122245007 1306291881 773833731#2 773833731#4 1060429926"/>
    </vehicle>
    <vehicle id="2" depart="1.60">
        <route edges="-952568333 718268727#0 718268727#1 718268727#2 718268726 -369837689#0 682899219#0 682899219#1 682899219#2 682899219#4 682899219#5 682899219#6 1040505170#3 1040505170#4 -1428923256#0 -1040505171 1040505172 -1081128962#0 -1040505180#2 -1040505180#1 -1428923596 1306282791 -1040505179#1 -1040505179#0 -1428929742 -705056990#7 1283519006 85595486#5 134070572 1042974967#0 1042974967#1 35308230#1 35308230#2-AddedOnRampEdge 35308230#2 35308230#3 35308230#4 35308230#5 35308230#5-AddedOffRampEdge 35308230#6 35308230#8 35308230#9 35308230#10 35308230#11 35308230#12 764071324#2 189447982#0 189447982#1 189447982#2 764071326#0 764071326#1 764071333#0 764071333#0-AddedOffRampEdge 764071333#1 35308228#10 -1211552289 707650861#0 707650861#1 707650861#2 189447703#0 189447703#1 189447703#2 189447703#4 189447717#0 1242796502"/>
    </vehicle>
    <vehicle id="3" depart="2.40">
        <route edges="-1283518687#6 -1283518687#5 -1283518687#4 -1283518687#3 -952595756 -952595749#0 -952595751 952568329#4 952568329#5 952568329#6 952568329#7 -952582626#1 -952582626#0 -952568339#2 -952568339#1 -952568339#0 -682347516#1 1081984263#0 1081984263#1"/>
    </vehicle>
    <vehicle id="4" depart="3.20">
        <route edges="1214777490#1 1214777490#2 -24576822#17 -24576822#15 -24576822#14 -24576822#13 -24576822#12 -24576822#11 -24576822#9 103172954#24 103172954#25 103172954#26 103172954#27 103172954#28 103172954#29 103172954#30 103172954#31 257763277#2 257763277#3 1275468137 263819666#0 263819666#1 263819666#2 263819666#3 423391669#0 423391669#1 423391669#2"/>
    </vehicle>
    <vehicle id="5" depart="4.00">
        <route edges="-1082059019#1 -1082059019#0 103172942#22 977466320#0 977466320#2 977466320#3 977466312#7 977466312#8 977466312#9 977466318 24576821#4 24576821#5 532739771#0 532739771#1 202969533#0 202969533#1 202969533#2 202969533#3 202969533#4 202969533#5 202969533#6 202969533#7 202969533#8 202969533#9 202969533#10 202969533#11 202969533#12 202969533#13 202969533#14 202969533#15 202969533#16 202969533#17 202969533#18 202969533#19 202969533#20 202969533#21 202969533#22 202969533#23 202969533#24 202969533#25 202969533#26 202969533#27 202969533#28 202969533#29 202969533#30 202969533#31 1085586825 56723584#10 1236550875#0 1236550875#1 1236550875#2 1236550875#3 423737640#0 423737640#1 370186849#5 370186849#6 370186849#7 370186849#8 1429000797#0 1429000797#1 1429000797#2 1429000797#3 1429000797#5 1238289074 1236537352 -207565747#20 -207565747#19 -207565747#18 -207565747#17 -423590906#9 -423590906#8 -423590906#7 -423590906#6 -423590906#5 -423590906#4 -423591052#12 -423591052#11 -423591052#10 -423591052#9 -423591052#8 -423591052#7 -423591052#6 -423591052#5 -423591052#4 -423591052#3 -423591052#1 -423591052#0 -235103510#2 168928124#0 1214970058 168928124#2 168928124#3 168928124#4 168928124#5 168928124#6 168928124#7 168928124#8 168928124#9 423590912#6 423590912#7 423590912#8 423591205#0 -423590921#11 -423591225#0"/>
    </vehicle>
    <vehicle id="6" depart="4.80">
        <route edges="-1082054984#2 -1171908498 -380700996#0 103172953#12 103172953#13 103172953#14 103172953#16 1428925100#0 1428925100#1 58360990#4 24576821#2 24576821#3 24576821#4 24576821#5 532739771#0 532739771#1 202969533#0 202969533#1 202969533#2 202969533#3 202969533#4 202969533#5 1040422762 56723584#29 56723584#30 56723584#31 56723584#32 56723584#33 56723584#34 56723584#35 56723584#36 56723584#37 56723584#38 56723584#39 56723584#40 -423400642 423400715#1"/>
    </vehicle>
    <vehicle id="7" depart="5.60">
        <route edges="1428995074#1 -423754646#1 -423754644#8 -423754644#7 -423754644#6 -423754644#5 -444065242#21 -444065242#20 -444065242#19 -444065242#18 -444065242#17 -444065242#16 -444065242#15 -444065242#14 -444065242#13 -444065242#12 -444065242#11 -444065242#10 -444065242#9 -444065242#8 -444065242#7 -444065242#6 -444065242#5 -444065242#4 -444065242#3 -444065242#2 -444065242#1 -444065242#0 369837697#4 1283227094#0 1283227094#1 36801841#4 36801841#5-AddedOnRampEdge 36801841#5 36801841#6 36801841#7 36801841#7-AddedOffRampEdge 36801841#8 59035955#0 59035955#1 59035955#2 59035955#3 59035955#4 59035955#5 59035955#6 189430873#8 189430873#9 189430873#10 189430873#1 189430938#0 189430938#0-AddedOffRampEdge 189430938#1 35308233#9 35308233#10 -1203868677 -1203868676#1 -1203868676#0 -1079932963#0"/>
    </vehicle>
    <vehicle id="8" depart="6.40">
        <route edges="776796096#4 776796096#5 776796096#6 776796096#7 776796096#8 776796096#9 776796096#10 776796096#11 776796096#12 -776796095#0 1042838379 36801849#8 36801849#10 36801849#11 36801849#11-AddedOffRampEdge 36801849#12 585189784 36801843#0-AddedOnRampEdge 36801843#0 36801843#1 369837713#0 369837713#1 -1205459744#1 772164903 -772164904#3 -772164904#2 -772164904#1 772164904#1"/>
    </vehicle>
    <vehicle id="9" depart="7.20">
        <route edges="1244535039#1 1244535039#2 1244535039#3 1081105918#1 -1081105919#0 -1082059011#5 -1082059011#4 -1082059011#3 -1082059011#2 189131397#5 313488516#9 313488516#9-AddedOffRampEdge 189430910 24576807#12-AddedOnRampEdge 24576807#12 189430873#3 189430873#4 189430873#5 189430873#6 189430920#0 189430920#1 189430920#2 189430920#3 189430920#3-AddedOffRampEdge 189430920#4 585189784 36801843#0-AddedOnRampEdge 36801843#0 36801843#1 36801843#2 36801843#3 36801843#4 36801843#5 36801843#6 36801843#9 706636796#0 706636796#1 444065242#0 444065242#1 444065242#2 444065242#3 444065242#4 444065242#5 444065242#6 444065242#7 444065242#8 444065242#9 444065242#10 444065242#11 444065242#12 444065242#13 444065242#14 444065242#15 444065242#16 444065242#17 444065242#18 444065242#19 -719264148#5 -719264148#4 -719264148#3 -1428930768#13 -1428930768#11 -1428930768#10 -1428930768#9 -1221676705 1305177006#10 1305177006#11 1305177006#12 1305177006#13"/>
    </vehicle>
    <vehicle id="10" depart="8.00">
        <route edges="-1238485197#1 -1238485197#0 -279990632#2 -279990632#1 -279990632#0 -1238477692 -1162760983#0 1082003221#1 -1042974966 1042974967#0 1042974967#1 203598795#10 203598795#11-AddedOnRampEdge 203598795#11 39452775 36801841#0 36801841#1 36801841#1-AddedOffRampEdge 36801841#2 707265938#0 707265938#1 369837697#6 1428922196#0 1428922196#1 -1428914452 -370186851#1 -370186851#0 -717148842#2 -717148842#1 -1056581947"/>
    </vehicle>
    <vehicle id="11" depart="8.80">
        <route edges="-1308143936 -1283518687#4 -1283518687#3 -1283518687#2 -1283518687#1 -1283518687#0 -952568336 -952568332#5 -952568332#4 -952568332#3 -952568332#1 -952568332#0 -1244386442 -369837712#6 -369837712#5 -369837712#4 -369837712#3 -369837712#2 -369837712#0 -423607590#0 -369837723#1 -369837723#0 -1428999886#11 -1428999886#10 -1428999886#9 -1428999886#8 -1428999886#7 -1428999886#6 -1428999886#5 -1428999886#3 -1428999886#2 -1428999886#1 -1428999886#0 -369837727#10 -369837727#9 -369837727#8 -369837727#7 -369837727#5 -369837727#4 -369837727#3 -369837727#2 -369837727#1 -369837727#0 1081309635#0 1081309635#1 1081309635#2 1081309635#3 1238271288 -1125146033 -1185438184#0 -423737614#4 -423737614#3 -423737614#2 -423737614#1 -423737614#0 1185434337 -1185431077#0 -1238263786#1 -1238263786#0 374688961 374689135#0 374689135#1 374689135#2 1428957186#1 374689144#0 -374689130#0"/>
    </vehicle>
    <vehicle id="12" depart="9.60">
        <route edges="-1056583567#3 691582319#6 -623832916#1 -623832916#0 1082008381#1 1082008381#2 47290483#2 47290483#3 47290483#4 47290483#5 47290483#6 47290483#7 47290483#8 47290483#9 47290483#10 203598795#0 203598795#1 203598795#2-AddedOnRampEdge 203598795#2 203598795#3 203598795#6 203598795#7 39452779 35308230#2-AddedOnRampEdge 35308230#2 35308230#3 35308230#4 35308230#5 35308230#5-AddedOffRampEdge 35308230#6 782400648#9 782400648#10-AddedOnRampEdge 782400648#10 782400648#11 187980759 36801849#1 36801849#2 36801849#2-AddedOffRampEdge 36801849#3 36801849#5 36801849#6 36801849#7 36801849#8 36801849#10 -1079359939 189430870#0 1056590739#0"/>
    </vehicle>
    <vehicle id="13" depart="10.40">
        <route edges="-423779533#1 -423779472#1 -423779472#0 423779542#1 423779542#2 423779542#3 423779542#4 423779542#5 423779542#6 423779542#7 423779542#8 -1428955888#2 -1428955888#1 -1428955888#0 -423779395#4 -423779395#2 423779526#1 423779526#2 423779526#3 423779526#4 423779526#5 -374689146#4 -374689146#3 -374689146#2 -374689146#1 -374689146#0 369835648#8 369835648#9 369835648#11 369835648#12 369835648#13 -1185434336 -374688958#0 423737614#0 423737614#1 423737614#2 423737614#3 423737614#4 423737614#5 207565747#0 207565747#1 207565747#2 207565747#3 207565747#4 207565747#6 207565747#7 1429169115#1 1429169115#2 369837717#1 369837717#2 369837717#4 369837717#5 369837717#6 369837717#7 369837717#8 -1428999970#15 -1428999970#14 -1428999970#13 -1428999970#12 -1428999970#11 -423607575#0 -1214795344 -423591055#11 -423591055#10 -423591055#9 -423591055#8 -423591055#7 -423591055#6 -423591055#5 -423591055#4 -423591055#3 -423591055#2 -423591055#1 423591311#1"/>
    </vehicle>
    <vehicle id="14" depart="11.20">
        <route edges="103172954#0 -103172954#0 1428925100#0 1428925100#1 58360990#4 58360990#5 36801848#7 585189785#0 585189785#2 585189785#2-AddedOffRampEdge 189430909 36801843#0-AddedOnRampEdge 36801843#0 36801843#1 36801843#2 36801843#3 36801843#4 36801843#5 36801843#6 36801843#9 36801843#10 1123529191#0 1123529191#1 -369837702#32 369837707#0 369837707#1 369837707#3 369837707#4 369837707#5 -1376112030 -1081980687 -1428924413 1428924412"/>
    </vehicle>
    <vehicle id="15" depart="12.00">
        <route edges="-776796095#9 -776796095#8 -776796095#7 -776796095#6 -776796095#5 -776796095#4 -776796095#3 -776796095#2 -776796095#1 -776796095#0 1042838379 36801849#8 36801849#10 36801849#11 36801849#11-AddedOffRampEdge 36801849#12 1428515506#1 1428515506#2-AddedOnRampEdge 1428515506#2 815127175#0 815127175#2 24576821#0 24576821#2 24576821#3 -977466318 -423283924#1 -423283924#0 103172954#13 103172954#14 103172954#15 103172954#16 103172954#17 103172954#18 103172954#20 103172954#21 103172954#22 103172954#23 24576822#9 24576822#11 24576822#12 24576822#13 24576822#14 24576822#15 -343667285#10 169032522"/>
    </vehicle>
    <vehicle id="16" depart="12.80">
        <route edges="-661755675#2 -661755675#1 -661755675#0 39451609#6 39451609#7 36801849#5 36801849#6 36801849#7 36801849#8 36801849#10 36801849#11 36801849#11-AddedOffRampEdge 36801849#12 1428515506#1 1428515506#2-AddedOnRampEdge 1428515506#2 815127175#0 815127175#2 24576821#0 24576821#2 24576821#3 -977466318 -423283924#1 -423283924#0 103172954#13 103172954#14 103172954#15 103172954#16 103172954#17 103172954#18 103172954#20 103172954#21 103172954#22 103172954#23 103172954#24 103172954#25 103172954#26 423391761#1 423391761#2 -423391682#1 -423391753#4 -423391753#3 -423391753#2 -423391753#1 -423391753#0"/>
    </vehicle>
    <vehicle id="17" depart="13.60">
        <route edges="977466312#11 -977466312#11 -977466312#9 -977466312#8 -977466312#7 -977466312#6 -977466312#5 -977466312#4 -977466312#2 -977466312#1 -977466312#0 1428925100#1 58360990#4 58360990#5 36801848#7 585189785#0 585189785#2 585189785#2-AddedOffRampEdge 189430909 36801843#0-AddedOnRampEdge 36801843#0 36801843#1 36801843#2 36801843#3 36801843#4 36801843#5 36801843#6 36801843#9 706636796#0 706636796#1 444065242#0 444065242#1 444065242#2 -1050440928 -1428924239 1428924240#0 1428924240#1 446924389#0 446924389#1 446924389#2 -952621341 -773601312#3 952621340"/>
    </vehicle>
    <vehicle id="18" depart="14.40">
        <route edges="423400629#6 423400629#7 423400629#8 423400629#9 369835489#5 -1081701745#7 -1081701745#5 -1081701745#3 -1081701745#2 -1081701745#1 -1081701745#0 1391516347 36801848#3 36801848#4 36801848#5 36801848#6 36801848#7 36801847#0 36801847#1 36801847#2 36801847#3 36801847#5 58360996#8 58360996#9 58360996#1 58360996#2 58360996#3 312264429#0 312264429#1"/>
    </vehicle>
    <vehicle id="19" depart="15.20">
        <route edges="-374688983#2 374688965#0 374688965#1 -374688946 -374688964#0 -1120545102#0 369837701#2 374688978#1 374688978#2 374688986#1 374688986#2 374688986#3 374688986#4 1238263788 1238263786#0 1238263786#1 1185431077#0 -374688958#0 423737614#0 423737614#1 423737614#2 423737614#3 -370186845#2 -370186845#1 -370186845#0 -1238270504#2 374688974#1 1185435870#2 1428996007#0 1428996007#1 1081102191#0 1081102191#1 1081102191#2 1081102191#3 1081102191#4 1428965077#0 1428965077#1 -1082003219#5 -1082003219#4"/>
    </vehicle>
    <vehicle id="20" depart="16.00">
        <route edges="36801848#2 36801848#3 36801848#4 36801848#5 36801848#6 36801848#7 585189785#0 585189785#2 585189785#2-AddedOffRampEdge 189430909 36801843#0-AddedOnRampEdge 36801843#0 36801843#1 36801843#2 36801843#3 36801843#4 36801843#5 36801843#6 36801843#9 706636796#0 706636796#1 444065242#0 444065242#1 444065242#2 -1050440928 -369837702#22 -369837702#21 -369837702#20 -369837702#19 -369837702#18 -369837702#17 -369837702#15 -369837702#13 -369837702#12 -369837702#11 -369837702#10 -369837702#9 -369837702#8 -369837702#7 -369837702#6 -369837702#5 772391523#0 -1308189114#1 -1308189114#0 -772391522#0"/>
    </vehicle>
    <vehicle id="21" depart="16.80">
        <route edges="423590890#6 423590890#7 423590890#8 423591060#10 423591052#15 423591052#16 56723584#3 56723584#4 56723584#5 56723584#6 56723584#7 56723584#8 56723584#10 56723584#11 56723584#12 56723584#13 56723584#14 56723584#15 56723584#16 56723584#17 56723584#18 56723584#19 56723584#20 56723584#21 56723584#22 56723584#23 56723584#24 56723584#25 56723584#26 56723584#27 56723584#28 56723584#29 -717042168"/>
    </vehicle>
    <vehicle id="22" depart="17.60">
        <route edges="717096966#5 1428965076 -462681630#3 715677147#0 715677147#1 715677147#2 715677147#3 -719264148#5 -719264148#4 -719264148#3 -719264148#2 1305177006#2 1305177006#3 -682347520#7 -682347520#6 -682347520#5 -682347520#4 682347519#0 -1040437649#3 1040437652 423607493#5"/>
    </vehicle>
    <vehicle id="23" depart="18.40">
        <route edges="-1012414569#4 -1012414569#3 -1012414569#2 -1012414569#1 -1012414569#0 56723584#22 56723584#23 56723584#24 56723584#25 56723584#26 56723584#27 56723584#28 56723584#29 56723584#30 56723584#31 56723584#32 56723584#33 56723584#34 56723584#35 56723584#36 56723584#37 56723584#38 56723584#39 56723584#40 56723584#41 169033823#0 169033823#1 36801848#2 36801848#3 36801848#4 36801848#5 36801848#6 36801848#7 585189785#0 585189785#2 585189785#2-AddedOffRampEdge 189430909 36801843#0-AddedOnRampEdge 36801843#0 36801843#1 36801843#2 36801843#3 36801843#4 36801843#5 36801843#6 36801843#9 36801843#10 36801843#11 36801843#12 36801843#13 39452777 39452777-AddedOffRampEdge 39452778#0 39452778#1 39452778#3 39452778#4 608989233#0 608989233#1 608989233#2 608989233#5 608989233#6 608989233#6-AddedOffRampEdge 39452773#0 39452773#1 1376114333#2-AddedOnRampEdge 1376114333#2 1376114333#3 -279990632#5"/>
    </vehicle>
    <vehicle id="24" depart="19.20">
        <route edges="423779389#4 423779389#5 423779389#6 423779389#7 423779389#8 423779389#9 423779389#10 423779515#2 423779515#3 423779484#1 423779484#2 -1205389983#2 -1205389983#1 -1205389983#0 -369835476#4 -369835476#3 -369835476#2 -369835476#1 -369835476#0 -1205467781 -1081701745#5 -1081701745#3 -1081701745#2 -1081701745#1 -1081701745#0 1391516347 36801848#3 36801848#4 36801848#5 36801848#6 36801848#7 36801847#0 36801847#1 36801847#2 36801847#3 299687974#1 299687974#2 299687974#3 1185478074 168952076#6 168952076#7 168952076#8 168952076#9 -774670710#2 -774670710#1 1076543262 1076543257"/>
    </vehicle>
    <vehicle id="25" depart="20.00">
        <route edges="776552698#0 776552698#1 -1056583159 -682899219#0 -1428930396#1 -1428930396#0 -1428930393#3 -1428930393#2 -1428930393#1 -1428930393#0 -952595746 -952595739#2 -952595739#1 -952595739#0 952605749#0 952605749#1 -953260280#1 -953260280#0 953260281 953260283#0 -719075665#2"/>
    </vehicle>
    <vehicle id="26" depart="20.80">
        <route edges="-1081329785#1 -423754678 423737636#2 423737570#5 423737570#6 423737570#7 1185440250#0 1185440250#1 -423737568#2 423737635#1 423737635#2 1238271287 1185435870#0 1185435870#1 1185435870#2 1428996007#0 1428996007#1 1081102191#0 1081102191#1 1081102191#2 1081102191#3 1081102191#4 1428965077#0 1428965077#1 -1082003219#5 -1082003219#4 -1082003219#3 -1082003219#2 -1082003219#1 -1082003219#0 -1210949132 -717148841#1 -717148841#0 -1050440006#1 -370186848#3 -370186848#2 370186851#1 1428914452 718983975#0 718983975#1 718983975#2 36801843#4 36801843#5 36801843#6 36801843#9 36801843#10 36801843#11 36801843#12 36801843#13 39452777 39452777-AddedOffRampEdge 39452778#0 39452778#1 85595486#0 85595486#1 85595486#2 1042974965 1042974966 -1082003221#1 -1082003221#0 533187955#0 1376114333#5"/>
    </vehicle>
    <vehicle id="27" depart="21.60">
        <route edges="369837709#2 369837709#3 -369837708#1 -369837708#0 -369835483#12 -369835483#11 -369835483#10 -369835483#9 -369835483#7 -369835483#6 -369835483#5 -369835483#4 -1244014639 -1244015401#3 -1244015401#2 -1244015401#1 -1244015401#0 -369835470#8 -369835470#7 -369835470#6 -369835470#5 -369835470#4 -369835470#3 -369835470#2 -369835470#1 -369835470#0 -1238475947 -1238475945 56723584#24 56723584#25 56723584#26 56723584#27 56723584#28 56723584#29 56723584#30 56723584#31 56723584#32 56723584#33 56723584#34 56723584#35 56723584#36 56723584#37 56723584#38 56723584#39 56723584#40 56723584#41 56723584#42 263819671#1 532739775#0 532739775#1 532739775#2 532739775#3 532739775#4 532739775#5 532739775#6 532739775#7 532739775#8 532739775#9 532739775#10 532739775#11 532739775#12 532739775#13 532739775#14 532739775#15 1275468139#0 1275468139#1 1275468138 1275468137 263819666#0 1427060972#0 1427060972#1 423391563#0 423391563#1 423391563#2 423391563#3 423391563#4 423391563#5 423391563#6 423391563#7 -1311684301#1 423391705#1 423391563#11 -423391563#11"/>
    </vehicle>
    <vehicle id="28" depart="22.40">
        <route edges="-1081984268 691582319#3 -623832912#5 -623832912#4 -623832912#3 -623832912#2 -623832912#1 -623832912#0 -1081988546#0 47290483#4 47290483#5 47290483#6 47290483#7 47290483#8 47290483#9 47290483#10 203598795#0 203598795#1 203598795#2-AddedOnRampEdge 203598795#2 203598795#3 203598795#6 203598795#7 203598795#8 203598795#10 203598795#11-AddedOnRampEdge 203598795#11 39452775 36801841#0 36801841#1 36801841#1-AddedOffRampEdge 36801841#2 707265938#0 707265938#1 369837697#6 1428922196#0 1428922196#1 -1428914452 -370186851#1 370186848#2 370186848#3 1050440006#1 717148841#0 717148841#1 1210949132 1082003219#0 1082003219#1 1082003219#2 1082003219#3 1082003219#4 1082003219#5 -1428965077#1 -1428965077#0 -1081102191#4 -1081102191#3 -1081102191#2 -1081102191#1 -1081102191#0 -1428996007#1 -1428996007#0 -1185435870#2 -1185435870#1 -1185435870#0 -1238271287 -423737635#2 -423737635#1 423737568#2 -1185440250#1 -1185440250#0 -423737570#7 -423737570#6 -423737570#5 -423737570#4 -423737570#3 1185442192 423737639#0 423737639#1 -423737640#4 423754632#0 -423737588#1"/>
    </vehicle>
    <vehicle id="29" depart="23.20">
        <route edges="718268724#0 -1056583187 1056583185 718268727#0 718268727#1 718268727#2 718268726 -369837689#0 682899219#0 682899219#1 682899219#2 682899219#4 682899219#5 682899219#6 1040505170#3 1040505170#4 -1428923256#0 -1040505171 1040505172 -1081128962#0 -1040505180#2 -1040505180#1 -1428923596 1306282791 -1040505179#1 -1040505179#0 -1428929742 -705056990#7 1283519006 85595486#5 134070572 1042974967#0 1042974967#1 35308230#1 35308230#2-AddedOnRampEdge 35308230#2 35308230#3 35308230#4 35308230#5 35308230#5-AddedOffRampEdge 35308230#6 782400648#9 782400648#10-AddedOnRampEdge 782400648#10 782400648#11 187980759 36801849#1 36801849#2 36801849#2-AddedOffRampEdge 36801849#3 39451609#9"/>
    </vehicle>
    <vehicle id="30" depart="24.00">
        <route edges="-1136379374#1 -1136379374#0 408610892#1 -408610898#1 -408610898#0 -39452782#0 189447794#13 189447794#14 39452784#4 203598795#6 203598795#7 203598795#8 203598795#10 203598795#11-AddedOnRampEdge 203598795#11 39452775 36801841#0 36801841#1 36801841#1-AddedOffRampEdge 36801841#2 707265938#0 707265938#1 369837697#6 1428922196#0 1428922196#1 -1428914452 -370186851#1 -370186851#0 -717148842#2 1082241071 -1082241072#0 682346012#3 682346012#4 1040429412#2 1040429412#3 1040429412#4 1428953432#1 682346730 1428931090 875163348 875114557#1 875114557#2 -392064554#3 -392064554#2 -392064534#9 -392064534#8 -392064534#7 -392064534#6 -392064541"/>
    </vehicle>
    <vehicle id="31" depart="24.80">
        <route edges="-1082233877 1040429415#1 -1428931091#0 -682346730 -1428953433 -1428953432#0 682346012#1 682346012#2 1082241072#0 -1082241071 717148842#2 370186851#0 370186851#1 1428914452 718983975#0 718983975#1 718983975#2 36801843#4 36801843#5 36801843#6 36801841#4 36801841#5-AddedOnRampEdge 36801841#5 36801841#6 36801841#7 36801841#7-AddedOffRampEdge 36801841#8 1428515506#1 1428515506#2-AddedOnRampEdge 1428515506#2 815127175#0 815127175#2 36801847#1 36801847#2 36801847#3 58360990#3 -1428925100#1 -1428925100#0 -103172953#16 -103172953#14 -103172953#13 -103172953#12 -103172953#11 -103172953#10 -103172953#9 -103172953#8 -103172953#7 1081324523#0 -1081324526#0"/>
    </vehicle>
    <vehicle id="32" depart="25.60">
        <route edges="374689148#0 -374689148#0 -369835649#18 -369835649#17 -369835649#16 -369835649#15 -369835649#14 -369835649#13 -369835649#12 -369835649#11 -369835649#10 -369835649#9 -369835649#8 -369835649#7 -369835649#6 -369835649#5 -369835649#4 -369835649#3 -369835649#2 -369835649#1 -369835649#0 56723584#18 56723584#19 56723584#20 56723584#21 56723584#22 56723584#23 56723584#24 56723584#25 56723584#26 56723584#27 56723584#28 56723584#29 56723584#30 56723584#31 56723584#32 56723584#33 56723584#34 56723584#35 56723584#36 56723584#37 56723584#38 56723584#39 56723584#40 56723584#41 169033823#0 169033823#1 36801848#2 36801848#3 36801848#4 36801848#5 36801848#6 36801848#7 36801847#0 36801847#1 36801847#2 36801847#3 168951946#0 449577160#0 449577160#1 449577160#2 449577160#3 -1185475741 -168951961#6 -168951961#4"/>
    </vehicle>
    <vehicle id="33" depart="26.40">
        <route edges="-1308144508 952568332#3 952568332#4 952568332#5 952568336 -952568337 -952568329#4 -952568329#3 -952595759 952595743 953260273#1 -773603310#4 719075665#2 719075665#3 1040796561#0 369837702#11 369837702#12 369837702#13 369837702#15 369837702#17 369837702#18 369837702#19"/>
    </vehicle>
    <vehicle id="34" depart="27.20">
        <route edges="-1187835577#1 -1187835577#0 56723584#8 56723584#10 56723584#11 56723584#12 56723584#13 56723584#14 56723584#15 56723584#16 56723584#17 56723584#18 423754782#0 423754782#1 423754782#2 423754782#3 423754782#4 423754782#5 423754782#6 423754782#7 -423779526#5 -423779526#4 -423779526#3 -423779526#2 -423779526#1 423779395#2 423779395#4 1428955888#0 1428955888#1"/>
    </vehicle>
    <vehicle id="35" depart="28.00">
        <route edges="-1133679365#0 -168951962#2 -168951962#1 -168951962#0 -977466321#0 977466323#4 -977466323#0 1074761650 36801843#1 36801843#2 36801843#3 36801843#4 36801843#5 36801843#6 36801843#9 706636796#0 706636796#1 444065242#0 444065242#1 444065242#2 -1050440928 -369837702#22 -369837702#21 -369837702#20 -369837702#19 -369837702#18 -369837702#17 -369837702#15 -369837702#13 -369837702#12 -1050440926#0 1056582744 -953260281 953260280#0 953260280#1 -952605749#1 -952604550#0"/>
    </vehicle>
    <vehicle id="36" depart="28.80">
        <route edges="-1428974753#4 -1428974753#3 -1428974753#2 -1428974753#1 423607615 1428980479 -168928125#10 -168928125#9 -168928125#7 -168928125#5 -168928125#4 -168928125#2 -168928125#1 168928126#3 168928126#4 -1081317174#4 -1081317174#3 -1081317174#1 -1081317174#0 -423591306#2 -423591306#1 -423591306#0 1429169114#0 423590944 423591027 235115525#3 235115525#4 56723584#1 56723584#2 56723584#3 56723584#4 56723584#5 56723584#6 56723584#7 56723584#8 56723584#10 56723584#11 56723584#12 56723584#13 56723584#14 56723584#15 56723584#16 56723584#17 56723584#18 56723584#19 56723584#20 56723584#21 56723584#22 56723584#23 56723584#24 56723584#25 56723584#26 56723584#27 56723584#28 56723584#29 56723584#30 56723584#31 56723584#32 56723584#33 56723584#34 56723584#35 56723584#36 56723584#37 56723584#38 56723584#39 56723584#40 56723584#41 56723584#42 263819671#1 532739775#0 532739775#1 532739775#2 532739775#3 532739775#4 532739775#5 532739775#6 532739775#7 532739775#8 532739775#9 532739775#10 532739775#11 532739775#12 532739775#13 532739775#14 532739775#15 1275468139#0 1275468139#1 1275468138 1275468137 263819666#0 1427060972#0 1427060972#1 423391563#0 423391563#1 423391563#2 423391563#3 423391563#4 423391563#5 423391563#6 423391563#7 -1311684301#1 423391705#1 423391563#11 -423391563#11"/>
    </vehicle>
    <vehicle id="37" depart="29.60">
        <route edges="772396770#5 772396770#6 772396770#7 1120576436#1 202969533#0 202969533#1 202969533#2 202969533#3 202969533#4 202969533#5 1040422762 56723584#29 56723584#30 56723584#31 56723584#32 56723584#33 56723584#34 -423400650 423400723#4 423400648"/>
    </vehicle>
    <vehicle id="38" depart="30.40">
        <route edges="-423283892#10 1081320987#0 1081320987#1 -423293432#0 423283892#12 -1089046276 423280939#8 423280939#9 1428928034#0 1428928034#1 1428927916#0 1428927916#1 1428927916#2 1428927916#4 -423293460#1 -423283933#7 -423283933#6 423283924#1 977466318 24576821#4 24576821#5 532739771#0 532739771#1 202969533#0 202969533#1 202969533#2 202969533#3 202969533#4 202969533#5 202969533#6 202969533#7 202969533#8 202969533#9 202969533#10 202969533#11 202969533#12 202969533#13 202969533#14 202969533#15 202969533#16 -759781320 56723584#21 1012414569#0 1012414569#1 423754700#2"/>
    </vehicle>
    <vehicle id="39" depart="31.20">
        <route edges="423591007 423590921#5 423590921#6 423590921#7 423590921#8 423591055#4 423591055#5 423591055#6 423590912#8 423590912#9 423590912#10 423590912#11 423590912#12 423590912#13 423590912#14 423590912#15 423590912#16 -369837727#9 423607622#0 423607622#1 423607622#2 423607484#3 -1305177006#12 -1305177006#11 -1305177006#10 -1305177006#8 -1305177006#6 -1305177006#5 -1305177006#4 -1305177006#3 -1305177006#2 -1305177006#1 -1305177006#0 1428930766"/>
    </vehicle>
    <vehicle id="40" depart="32.00">
        <route edges="-1082229013#1 1082229016#3 775237180#1 775237180#2 775237180#3 -369837708#5 -369837708#4 -369837708#2 -369837709#3 -369837709#2 -369837709#1 -369837709#0 369835483#17 -886273322#4 423754766#0 423754766#1 775248397 -875114545#1 -875114545#0 -875114548#0 -392064554#5 875114558#1"/>
    </vehicle>
    <vehicle id="41" depart="32.80">