<?xml version="1.0" encoding="UTF-8"?>

<!-- generated on 2026-02-17 12:53:07.681020 by randomTrips.py v1_24_0+0000-b72eb3fabc8
<configuration>
    <net-file value="osm.net.xml"/>
    <output-trip-file value="generated/client2.trips.xml"/>
    <route-file value="generated/client2.rou.xml"/>
    <fringe-factor value="2"/>
    <seed value="77"/>
    <period value="1.6"/>
</configuration>
-->

<routes xmlns:xsi="http://www.w3.org/2001/XMLSchema-instance" xsi:noNamespaceSchemaLocation="http://sumo.dlr.de/xsd/routes_file.xsd">
    <trip id="0" depart="0.00" from="408833001#1" to="-423591327#7"/>
    <trip id="1" depart="1.60" from="-279990641#0" to="423590891#3"/>
    <trip id="2" depart="3.20" from="-1185644029#1" to="1056585538"/>
    <trip id="3" depart="4.80" from="1081984263#0" to="1255563205#0"/>
    <trip id="4" depart="6.40" from="-1244002218#7" to="1392923856#2"/>
    <trip id="5" depart="8.00" from="1049863764#1" to="423591321#7"/>
    <trip id="6" depart="9.60" from="-1056583187" to="718264165#2"/>
    <trip id="7" depart="11.20" from="-1311684301#1" to="423400633"/>
    <trip id="8" depart="12.80" from="1056582225" to="423591077"/>
    <trip id="9" depart="14.40" from="-1428629922#6" to="-423591292#12"/>
    <trip id="10" depart="16.00" from="-1082227001" to="408610896#1"/>
    <trip id="11" depart="17.60" from="-1428995074#0" to="-1082249452"/>
    <trip id="12" depart="19.20" from="-168928124#25" to="1185430285"/>
    <trip id="13" depart="20.80" from="-715646314#2" to="207565747#23"/>
    <trip id="14" depart="22.40" from="-1081738394#1" to="423591177#1"/>
    <trip id="15" depart="24.00" from="782400648#10-AddedOnRampEdge" to="369837698#1"/>
    <trip id="16" depart="25.60" from="35308150#0" to="423591311#1"/>
    <trip id="17" depart="27.20" from="-1116858402" to="1053499506#0"/>
    <trip id="18" depart="28.80" from="-1081994912#0" to="423280934#1"/>
    <trip id="19" depart="30.40" from="1081113606#9" to="-1191697815#0"/>
    <trip id="20" depart="32.00" from="-717138661#1" to="39452787#18"/>
    <trip id="21" depart="33.60" from="1081354410#3" to="-1238269980#0"/>
    <trip id="22" depart="35.20" from="623832912#4" to="-1081314862#0"/>
    <trip id="23" depart="36.80" from="423590914#12" to="774638593#0"/>
    <trip id="24" depart="38.40" from="36801846#2" to="717036763#1"/>
    <trip id="25" depart="40.00" from="1079934643#1" to="-279990644#1"/>
    <trip id="26" depart="41.60" from="-776796096#4" to="369835649#17"/>
    <trip id="27" depart="43.20" from="369837718#6" to="-451099331"/>
    <trip id="28" depart="44.80" from="708711529#0" to="-1056590731#0"/>
    <trip id="29" depart="46.40" from="1040121963#0" to="-1074140538#0"/>
    <trip id="30" depart="48.00" from="-423607491#3" to="875150161"/>
    <trip id="31" depart="49.60" from="-1187835575#0" to="813891620"/>
    <trip id="32" depart="51.20" from="423779397#8" to="189447811"/>
    <trip id="33" depart="52.80" from="-1081305221#1" to="1056582752#1"/>
    <trip id="34" depart="54.40" from="189289352#2" to="-1150130318#0"/>
    <trip id="35" depart="56.00" from="-423293449" to="-1130548334#2"/>
    <trip id="36" depart="57.60" from="423590914#9" to="444065242#1"/>
    <trip id="37" depart="59.20" from="451098123#1" to="369837723#12"/>
    <trip id="38" depart="60.80" from="1120500715#2" to="-1081329788"/>
    <trip id="39" depart="62.40" from="-952595757#2" to="374688978#2"/>
    <trip id="40" depart="64.00" from="369835488#0" to="-1056583185"/>
    <trip id="41" depart="65.60" from="451099331" to="-1214777487"/>
    <trip id="42" depart="67.20" from="-423754719" to="1056585533#0"/>
    <trip id="43" depart="68.80" from="423737568#0" to="-1244551456"/>
    <trip id="44" depart="70.40" from="-369837717#7" to="39451632#2"/>
    <trip id="45" depart="72.00" from="-1082074667" to="-1428930767"/>
    <trip id="46" depart="73.60" from="-1056582733#1" to="718279137#1"/>
    <trip id="47" depart="75.20" from="-203569933" to="1081305470"/>
    <trip id="48" depart="76.80" from="-423737607#1" to="782400648#6"/>
    <trip id="49" depart="78.40" from="189447860#9" to="1244528190"/>
    <trip id="50" depart="80.00" from="103172942#19" to="-423283894#8"/>
    <trip id="51" depart="81.60" from="423590895#7" to="-1187191822"/>
    <trip id="52" depart="83.20" from="1244015401#0" to="-423400676"/>
    <trip id="53" depart="84.80" from="-374689137#0" to="1040121963#2"/>
    <trip id="54" depart="86.40" from="-1428966208" to="1242795859#2"/>
    <trip id="55" depart="88.00" from="-1081373768#1" to="-1056581970"/>
    <trip id="56" depart="89.60" from="-1238480415" to="-1124385756#0"/>
    <trip id="57" depart="91.20" from="423627840#19" to="1081320984#1"/>
    <trip id="58" depart="92.80" from="168951945#4" to="408610898#1"/>
    <trip id="59" depart="94.40" from="-1303021843" to="717155785#0"/>
    <trip id="60" depart="96.00" from="1012414569#4" to="189447957#4"/>
    <trip id="61" depart="97.60" from="369837718#3" to="-189430905#2"/>
    <trip id="62" depart="99.20" from="423391749#1" to="-774981589#1"/>
    <trip id="63" depart="100.80" from="-369835648#2" to="423607651#2"/>
    <trip id="64" depart="102.40" from="423607611#1" to="423607560#2"/>
    <trip id="65" depart="104.00" from="-423400712#0" to="423867562"/>
    <trip id="66" depart="105.60" from="370186848#1" to="773603310#6"/>
    <trip id="67" depart="107.20" from="369835482#6" to="977466323#2"/>
    <trip id="68" depart="108.80" from="-94496413#2" to="369837720#12"/>
    <trip id="69" depart="110.40" from="374688981#0" to="1081988545"/>
    <trip id="70" depart="112.00" from="1056581951" to="-715669944#4"/>
    <trip id="71" depart="113.60" from="423607520" to="-423867530"/>
    <trip id="72" depart="115.20" from="35308233#20" to="1185644028#0"/>
    <trip id="73" depart="116.80" from="189447759#1" to="-423591052#1"/>
    <trip id="74" depart="118.40" from="-1081988539" to="189430876#0"/>
    <trip id="75" depart="120.00" from="-1243997420" to="-423754767#0"/>
    <trip id="76" depart="121.60" from="374688983#0" to="-1081107625#0"/>
    <trip id="77" depart="123.20" from="423779445#0" to="1238271499"/>
    <trip id="78" depart="124.80" from="1082008380#0" to="189430901#2"/>
    <trip id="79" depart="126.40" from="-1081309635#2" to="-1056582250"/>
    <trip id="80" depart="128.00" from="203569917#5" to="1238240666#2"/>
    <trip id="81" depart="129.60" from="1283518683#10" to="423590895#4"/>
    <trip id="82" depart="131.20" from="-374688947#8" to="-1428542849#5"/>
    <trip id="83" depart="132.80" from="772438409#2" to="-1081321555"/>
    <trip id="84" depart="134.40" from="1056585524" to="1311687605"/>
    <trip id="85" depart="136.00" from="717155790#4" to="-1120500716#0"/>
    <trip id="86" depart="137.60" from="189447685#9" to="-1082233876"/>
    <trip id="87" depart="139.20" from="-718975696#1" to="1308144508"/>
    <trip id="88" depart="140.80" from="423591055#4" to="-1081105916"/>
    <trip id="89" depart="142.40" from="36167764#12" to="-1306729038#1"/>
    <trip id="90" depart="144.00" from="-423779440#0" to="782400648#10-AddedOnRampEdge"/>
    <trip id="91" depart="145.60" from="-103172954#29" to="-1056588272#1"/>
    <trip id="92" depart="147.20" from="374688979#0" to="-1070111897"/>
    <trip id="93" depart="148.80" from="374689147#1" to="423391707#2"/>
    <trip id="94" depart="150.40" from="423391555#8" to="682347519#8"/>
    <trip id="95" depart="152.00" from="1249890045" to="423590906#1"/>
    <trip id="96" depart="153.60" from="1081313166#0" to="189131385#6"/>
    <trip id="97" depart="155.20" from="-1081352605" to="1132400526"/>
    <trip id="98" depart="156.80" from="875150164#4" to="-47652182#5"/>
    <trip id="99" depart="158.40" from="189447924#0" to="-168928124#9"/>
    <trip id="100" depart="160.00" from="-952595757#6" to="1117138584#1"/>
    <trip id="101" depart="161.60" from="369837719#8" to="-423591301#1"/>
    <trip id="102" depart="163.20" from="-774727157#0" to="-189289370#1"/>
    <trip id="103" depart="164.80" from="1122836923" to="705045234"/>
    <trip id="104" depart="166.40" from="-423754653" to="168951958#0"/>
    <trip id="105" depart="168.00" from="1081742193#1" to="-189447685#7"/>
    <trip id="106" depart="169.60" from="189430880#0" to="-203569944#1"/>
    <trip id="107" depart="171.20" from="1238263787" to="952595760"/>
    <trip id="108" depart="172.80" from="-423391602" to="189131387#1"/>
    <trip id="109" depart="174.40" from="-423591077" to="1428965078#0"/>
    <trip id="110" depart="176.00" from="-1428980101" to="1081305215#3"/>
    <trip id="111" depart="177.60" from="374689147#1" to="-207565747#2"/>
    <trip id="112" depart="179.20" from="-423591321#7" to="-369835482#2"/>
    <trip id="113" depart="180.80" from="-1249869385" to="189131397#11"/>
    <trip id="114" depart="182.40" from="423400629#6" to="1082004725"/>
    <trip id="115" depart="184.00" from="-717448198#2" to="-423590904#9"/>
    <trip id="116" depart="185.60" from="-24576822#7" to="708711529#0"/>
    <trip id="117" depart="187.20" from="-952568339#2" to="189447687#5"/>
    <trip id="118" depart="188.80" from="-380700998#21" to="-1429146381#1"/>
    <trip id="119" depart="190.40" from="-1040429416#2" to="-423400696#0"/>
    <trip id="120" depart="192.00" from="-446924391#4" to="1081738065"/>
    <trip id="121" depart="193.60" from="1238485197#0" to="189447882#1"/>
    <trip id="122" depart="195.20" from="423608654#1" to="423391591"/>
    <trip id="123" depart="196.80" from="187980737#16" to="423391669#0"/>
    <trip id="124" depart="198.40" from="1081309638#0" to="1056583160"/>
    <trip id="125" depart="200.00" from="423779530#2" to="423754775#1"/>
    <trip id="126" depart="201.60" from="-423754644#2" to="423627840#17"/>
    <trip id="127" depart="203.20" from="-661755675#0" to="369837724#6"/>
    <trip id="128" depart="204.80" from="-1056582719#1" to="1244002220"/>
    <trip id="129" depart="206.40" from="707265938#0" to="-952595749#2"/>
    <trip id="130" depart="208.00" from="423607584#0" to="189430938#8"/>
    <trip id="131" depart="209.60" from="-1056582227" to="-1082226996#1"/>
    <trip id="132" depart="211.20" from="-423590912#19" to="773833731#5"/>
    <trip id="133" depart="212.80" from="1428511389#0" to="1244291574#2"/>
    <trip id="134" depart="214.40" from="423591288#4" to="-423737629#2"/>
    <trip id="135" depart="216.00" from="-1244004944#1" to="1012414569#0"/>
    <trip id="136" depart="217.60" from="423779434" to="-1428954063#1"/>
    <trip id="137" depart="219.20" from="103172954#7" to="-423400651"/>
    <trip id="138" depart="220.80" from="-423607482#2" to="-1133679365#1"/>
    <trip id="139" depart="222.40" from="423779409" to="-380700998#19"/>
    <trip id="140" depart="224.00" from="39451612#1" to="-1429146381#0"/>
    <trip id="141" depart="225.60" from="-623832912#2" to="-1056582740"/>
    <trip id="142" depart="227.20" from="1184943464#1" to="1081318536#1"/>
    <trip id="143" depart="228.80" from="-682347520#2" to="-189447794#19"/>
    <trip id="144" depart="230.40" from="1283135043#10" to="-1056590739#1"/>
    <trip id="145" depart="232.00" from="58360987#2" to="1058039133#0"/>
    <trip id="146" depart="233.60" from="1236761325#1" to="-774608657#0"/>
    <trip id="147" depart="235.20" from="-1056582242#0" to="-1056587303#1"/>
    <trip id="148" depart="236.80" from="207565747#7" to="1074438110#0"/>
    <trip id="149" depart="238.40" from="-374689146#4" to="1082241068#0"/>
    <trip id="150" depart="240.00" from="423607593#0" to="1081319953"/>
    <trip id="151" depart="241.60" from="1056587319#2" to="1236756581"/>
    <trip id="152" depart="243.20" from="423607631#3" to="-1056588272#2"/>
    <trip id="153" depart="244.80" from="1428930768#13" to="1210904478#1"/>
    <trip id="154" depart="246.40" from="189447957#1" to="-1428930768#5"/>
    <trip id="155" depart="248.00" from="423391753#5" to="423293443#0"/>
    <trip id="156" depart="249.60" from="-374689144#6" to="717094174#2"/>
    <trip id="157" depart="251.20" from="-1081113606#5" to="1120500717#3"/>
    <trip id="158" depart="252.80" from="-1082226996#0" to="-189289356#1"/>
    <trip id="159" depart="254.40" from="1283135043#13" to="23138296#3"/>
    <trip id="160" depart="256.00" from="-952568332#3" to="-370186845#5"/>
    <trip id="161" depart="257.60" from="1081314864#0" to="103172953#3"/>
    <trip id="162" depart="259.20" from="-423737635#1" to="-717467043#7"/>
    <trip id="163" depart="260.80" from="-773572035#4" to="-423779442#2"/>
    <trip id="164" depart="262.40" from="-1203405285#1" to="1081107625#0"/>
    <trip id="165" depart="264.00" from="-408838134#2" to="423293430"/>
    <trip id="166" depart="265.60" from="717448197#1" to="369837712#0"/>
    <trip id="167" depart="267.20" from="-423590909#1" to="1056587304"/>
    <trip id="168" depart="268.80" from="343503830#6" to="-369835648#28"/>
    <trip id="169" depart="270.40" from="408838134#1" to="-1079934644#2"/>
    <trip id="170" depart="272.00" from="772396770#7" to="1171910516"/>
    <trip id="171" depart="273.60" from="370184241#0" to="1244505535#1"/>
    <trip id="172" depart="275.20" from="423591055#8" to="-773683612#1"/>
    <trip id="173" depart="276.80" from="-1082241061#1" to="-189447921#1"/>
    <trip id="174" depart="278.40" from="35308233#10" to="782592560#4"/>
    <trip id="175" depart="280.00" from="-189447907#0" to="1074761650"/>
    <trip id="176" depart="281.60" from="374688978#2" to="-423590914#4"/>
    <trip id="177" depart="283.20" from="-207565747#16" to="374689144#5"/>
    <trip id="178" depart="284.80" from="-1187191822" to="-423607622#2"/>
    <trip id="179" depart="286.40" from="1188021883" to="1081107624#1"/>
    <trip id="180" depart="288.00" from="716027564#2" to="1062054742#1"/>
    <trip id="181" depart="289.60" from="-423779485#1" to="-189131373#7"/>
    <trip id="182" depart="291.20" from="423391552#1" to="-1081113606#6"/>
    <trip id="183" depart="292.80" from="-1053545100#1" to="-423779398#2"/>
    <trip id="184" depart="294.40" from="423283892#12" to="-374689146#2"/>
    <trip id="185" depart="296.00" from="-774660457#1" to="-1126715664#1"/>
    <trip id="186" depart="297.60" from="-392064534#6" to="691582319#3"/>
    <trip id="187" depart="299.20" from="423591283#3" to="-1162760984#0"/>
    <trip id="188" depart="300.80" from="717155791#3" to="1056582249#7"/>
    <trip id="189" depart="302.40" from="-1236756580" to="-423779409"/>
    <trip id="190" depart="304.00" from="718975696#1" to="-168952078#3"/>
    <trip id="191" depart="305.60" from="369837702#18" to="682347518#0"/>
    <trip id="192" depart="307.20" from="423779530#4" to="370186846#6"/>
    <trip id="193" depart="308.80" from="449578284#2" to="-1215919460#0"/>
    <trip id="194" depart="310.40" from="189430857#2" to="764071326#3"/>
    <trip id="195" depart="312.00" from="1056589523#1" to="-1053545101#1"/>
    <trip id="196" depart="313.60" from="-423283893#6" to="-953260284#4"/>
    <trip id="197" depart="315.20" from="-423779531#5" to="35308228#2"/>
    <trip id="198" depart="316.80" from="-1311732079#0" to="-1039518915#2"/>
    <trip id="199" depart="318.40" from="1428515094#8" to="875114546#1"/>
    <trip id="200" depart="320.00" from="-953260274#0" to="189447685#10"/>
    <trip id="201" depart="321.60" from="189447826#1" to="189289352#0"/>
    <trip id="202" depart="323.20" from="39452778#3" to="-1056587305#0"/>
    <trip id="203" depart="324.80" from="189447695#5" to="-886273322#0"/>
    <trip id="204" depart="326.40" from="-423754644#9" to="423391629"/>
    <trip id="205" depart="328.00" from="-1214794138" to="462681619#1"/>
    <trip id="206" depart="329.60" from="423293416" to="423591055#7"/>
    <trip id="207" depart="331.20" from="423867594#1" to="-279990642#13"/>
    <trip id="208" depart="332.80" from="1187835575#0" to="423779443#13"/>
    <trip id="209" depart="334.40" from="1081313214" to="189447685#8"/>
    <trip id="210" depart="336.00" from="-1133679359" to="189131382#2"/>
    <trip id="211" depart="337.60" from="-1056582744" to="1081327397#0"/>
    <trip id="212" depart="339.20" from="-1056583153" to="-423590975"/>
    <trip id="213" depart="340.80" from="-1171066283#1" to="-423293449"/>
    <trip id="214" depart="342.40" from="-1212721760#1" to="189447693#1"/>
    <trip id="215" depart="344.00" from="423283932#4" to="257762098#1"/>
    <trip id="216" depart="345.60" from="1210947564" to="1081738399"/>
    <trip id="217" depart="347.20" from="369837721#4" to="-777696678#0"/>
    <trip id="218" depart="348.80" from="-423737614#3" to="-705056990#1"/>
    <trip id="219" depart="350.40" from="-1056582730#0" to="-189447975#4"/>
    <trip id="220" depart="352.00" from="1244015402" to="-682346012#4"/>
    <trip id="221" depart="353.60" from="-623832912#6" to="-1150939870#3"/>
    <trip id="222" depart="355.20" from="-1244552898" to="423737588#2"/>
    <trip id="223" depart="356.80" from="423779531#3" to="1203864437"/>
    <trip id="224" depart="358.40" from="36167764#15" to="-1311728730#1"/>
    <trip id="225" depart="360.00" from="717458145#0" to="1040121956"/>
    <trip id="226" depart="361.60" from="-1238240668#0" to="-1081717220#0"/>
    <trip id="227" depart="363.20" from="-1081317173#2" to="-1012414573#2"/>
    <trip id="228" depart="364.80" from="370186850#5" to="423293456#1"/>
    <trip id="229" depart="366.40" from="-370186845#4" to="-423400676"/>
    <trip id="230" depart="368.00" from="423779483#1" to="-369837700#5"/>
    <trip id="231" depart="369.60" from="423754779#1" to="423590897#2"/>
    <trip id="232" depart="371.20" from="-423779488#1" to="1040796696#0"/>
    <trip id="233" depart="372.80" from="-423779428" to="-423754772#1"/>
    <trip id="234" depart="374.40" from="189447701#0" to="189430922#2"/>
    <trip id="235" depart="376.00" from="952595750" to="-1238236490#6"/>
    <trip id="236" depart="377.60" from="-423391662" to="1082059009#1"/>
    <trip id="237" depart="379.20" from="39451626#11" to="952595740#1"/>
    <trip id="238" depart="380.80" from="423391563#6" to="-1141340754#0"/>
    <trip id="239" depart="382.40" from="369837702#3" to="-279990639#2"/>
    <trip id="240" depart="384.00" from="-682347519#0" to="-1082059011#4"/>
    <trip id="241" depart="385.60" from="-1056583152#2" to="-776552698#0"/>
    <trip id="242" depart="387.20" from="423627840#16" to="-423391753#0"/>
    <trip id="243" depart="388.80" from="-1056583567#3" to="189447860#14"/>
    <trip id="244" depart="390.40" from="-380700998#4" to="-1119604448#2"/>
    <trip id="245" depart="392.00" from="-168951954#0" to="423754637#0"/>
    <trip id="246" depart="393.60" from="423754779#1" to="1081113606#13"/>
    <trip id="247" depart="395.20" from="-875114553#1" to="189447864#1"/>
    <trip id="248" depart="396.80" from="-423591178#1" to="-462681618#8"/>
    <trip id="249" depart="398.40" from="374688977#0" to="187980764#1"/>
    <trip id="250" depart="400.00" from="423737614#4" to="1203860392"/>
    <trip id="251" depart="401.60" from="423391710" to="423591060#8"/>
    <trip id="252" depart="403.20" from="-235103510#13" to="1428927916#4"/>
    <trip id="253" depart="404.80" from="1081728825#0" to="-1428542844#4"/>
    <trip id="254" depart="406.40" from="-189447712#6" to="-661405750#0"/>
    <trip id="255" depart="408.00" from="707163233#1" to="-1056589481"/>
    <trip id="256" depart="409.60" from="759789696#1" to="717096966#4"/>
    <trip id="257" depart="411.20" from="-423779401#7" to="1311728731"/>
    <trip id="258" depart="412.80" from="-423391557#0" to="-1078401429"/>
    <trip id="259" depart="414.40" from="-1056582223#0" to="36801847#0"/>
    <trip id="260" depart="416.00" from="-189447927#2" to="1081317173#2"/>
    <trip id="261" depart="417.60" from="-423280939#2" to="-1040437652"/>
    <trip id="262" depart="419.20" from="718983975#0" to="1081345151"/>
    <trip id="263" depart="420.80" from="773601310#1" to="-715677147#3"/>
    <trip id="264" depart="422.40" from="423590914#7" to="1081661123#5"/>
    <trip id="265" depart="424.00" from="-1056582248#1" to="462681618#6"/>
    <trip id="266" depart="425.60" from="187980737#5" to="1211553099"/>
    <trip id="267" depart="427.20" from="-707163233#0" to="-1040429412#0"/>
    <trip id="268" depart="428.80" from="423607625#2" to="-1081312725"/>
    <trip id="269" depart="430.40" from="-1145058095" to="39452786#3"/>
    <trip id="270" depart="432.00" from="-423283930#3" to="-423627837#7"/>
    <trip id="271" depart="433.60" from="-374688975#1" to="1056582239"/>
    <trip id="272" depart="435.20" from="39451609#7" to="-423607598#3"/>
    <trip id="273" depart="436.80" from="-1221676674#1" to="1132456601#1"/>
    <trip id="274" depart="438.40" from="-423591311#1" to="423754782#6"/>
    <trip id="275" depart="440.00" from="-1081316407" to="-772438403#0"/>
    <trip id="276" depart="441.60" from="-462681623#2" to="423391739#1"/>
    <trip id="277" depart="443.20" from="-1428954063#6" to="423283931#10"/>
    <trip id="278" depart="444.80" from="1081345151" to="423590924"/>
    <trip id="279" depart="446.40" from="423283898#1" to="1081309637#0"/>
    <trip id="280" depart="448.00" from="203569927" to="-1244535039#1"/>
    <trip id="281" depart="449.60" from="369835476#2" to="-203569946#1"/>
    <trip id="282" depart="451.20" from="1081994912#0" to="-1428957186#1"/>
    <trip id="283" depart="452.80" from="715646315#0" to="-717025536#1"/>
    <trip id="284" depart="454.40" from="1427060972#2" to="1081316361"/>
    <trip id="285" depart="456.00" from="189131387#11" to="-189430922#4"/>
    <trip id="286" depart="457.60" from="369837727#8" to="-608989232#0"/>
    <trip id="287" depart="459.20" from="1305177006#8" to="651897051"/>
    <trip id="288" depart="460.80" from="1428511836#2" to="370186846#4"/>
    <trip id="289" depart="462.40" from="103172942#15" to="1056583151#2"/>
    <trip id="290" depart="464.00" from="423779488#2" to="1056582751#0"/>
    <trip id="291" depart="465.60" from="-1056590764#0" to="-423591110#1"/>
    <trip id="292" depart="467.20" from="-875114559#0" to="-1056581950"/>
    <trip id="293" depart="468.80" from="-1120023916" to="1201404822"/>
    <trip id="294" depart="470.40" from="-1311728729" to="707265938#1"/>
    <trip id="295" depart="472.00" from="-1190525991" to="-423590921#1"/>
    <trip id="296" depart="473.60" from="-1116226811#0" to="-446924545#0"/>
    <trip id="297" depart="475.20" from="-1040437648#2" to="1262530282"/>
    <trip id="298" depart="476.80" from="-1238263471#0" to="-1205847402#0"/>
    <trip id="299" depart="478.40" from="-423591309#0" to="-1214794138"/>
    <trip id="300" depart="480.00" from="-369835648#8" to="706626859#1"/>
    <trip id="301" depart="481.60" from="-423400642" to="203569917#4"/>
    <trip id="302" depart="483.20" from="1428511388" to="189289371#3"/>
    <trip id="303" depart="484.80" from="-718983975#1" to="-952621353"/>
    <trip id="304" depart="486.40" from="1343031185#2" to="-1255878220"/>
    <trip id="305" depart="488.00" from="-1078191849" to="-1190518833#0"/>
    <trip id="306" depart="489.60" from="-1056582751#0" to="1056581969#2"/>
    <trip id="307" depart="491.20" from="-1082241065" to="1038929944#1"/>
    <trip id="308" depart="492.80" from="1117075471#0" to="-369837721#0"/>
    <trip id="309" depart="494.40" from="168928009#8" to="1081319956#0"/>
    <trip id="310" depart="496.00" from="-423391762#8" to="1082003219#0"/>
    <trip id="311" depart="497.60" from="-1056588276#2" to="1123304903#2"/>
    <trip id="312" depart="499.20" from="-1311469727" to="717090093#2"/>
    <trip id="313" depart="500.80" from="1081701745#0" to="1082043234"/>
    <trip id="314" depart="502.40" from="-189430881#2" to="-1082242343#0"/>
    <trip id="315" depart="504.00" from="-1249868221#2" to="-423737626#2"/>
    <trip id="316" depart="505.60" from="-1311963958" to="423754703#1"/>
    <trip id="317" depart="507.20" from="-423293447" to="-773833731#5"/>
    <trip id="318" depart="508.80" from="-423737631#3" to="-423779434"/>
    <trip id="319" depart="510.40" from="-1386975347" to="189447703#7"/>
    <trip id="320" depart="512.00" from="423400690#1" to="1190505586#2"/>
    <trip id="321" depart="513.60" from="-189447980#4" to="39451612#11"/>
    <trip id="322" depart="515.20" from="-1056588295#0" to="189447840#0"/>
    <trip id="323" depart="516.80" from="-707163232" to="-189430870#0"/>
    <trip id="324" depart="518.40" from="776547128#1" to="-1082054984#0"/>
    <trip id="325" depart="520.00" from="-423400671#1" to="168951962#0"/>
    <trip id="326" depart="521.60" from="-1076758138#7" to="374689130#1"/>
    <trip id="327" depart="523.20" from="-1012414576" to="-168928122#4"/>
    <trip id="328" depart="524.80" from="423607658#0" to="-1078505133"/>
    <trip id="329" depart="526.40" from="423607542#1" to="-1428914452"/>
    <trip id="330" depart="528.00" from="-423737629#2" to="-423530945"/>
    <trip id="331" depart="529.60" from="1386975341#1" to="1425310870#0"/>
    <trip id="332" depart="531.20" from="103172942#15" to="423779541#6"/>
    <trip id="333" depart="532.80" from="-952568329#7" to="1429146380#10"/>
    <trip id="334" depart="534.40" from="423283894#8" to="189430905#4"/>
    <trip id="335" depart="536.00" from="423591104#1" to="-444065242#16"/>
    <trip id="336" depart="537.60" from="24576822#9" to="-1184943464#0"/>
    <trip id="337" depart="539.20" from="-168952076#9" to="-1081341676#3"/>
    <trip id="338" depart="540.80" from="423591208#0" to="-1429146383#7"/>
    <trip id="339" depart="542.40" from="-776796095#2" to="-423607547#0"/>
    <trip id="340" depart="544.00" from="-392064534#9" to="-1244504877"/>
    <trip id="341" depart="545.60" from="-715646316#1" to="1080008156#6"/>
    <trip id="342" depart="547.20" from="1076776904#1" to="189430905#4"/>
    <trip id="343" depart="548.80" from="423607663#3" to="1082229013#1"/>
    <trip id="344" depart="550.40" from="1081319960#2" to="-168928124#18"/>
    <trip id="345" depart="552.00" from="-423737575#0" to="-423590921#5"/>
    <trip id="346" depart="553.60" from="-777696678#3" to="-369837697#0"/>
    <trip id="347" depart="555.20" from="423737640#4" to="-150881409#4"/>
    <trip id="348" depart="556.80" from="1119604448#0" to="-423591227#2"/>
    <trip id="349" depart="558.40" from="1203860845#0" to="-1056582719#1"/>
    <trip id="350" depart="560.00" from="374688944#1" to="-423391705#0"/>
    <trip id="351" depart="561.60" from="-423754780#0" to="1244002218#3"/>
    <trip id="352" depart="563.20" from="532739775#8" to="1185948495#0"/>
    <trip id="353" depart="564.80" from="1058039133#5" to="-1122600928#0"/>
    <trip id="354" depart="566.40" from="-1283518684#0" to="-168928126#4"/>
    <trip id="355" depart="568.00" from="423591225#1" to="-1056582220"/>
    <trip id="356" depart="569.60" from="423293417#0" to="-423607622#2"/>
    <trip id="357" depart="571.20" from="369837719#3" to="1056582236"/>
    <trip id="358" depart="572.80" from="423779528#1" to="-47652182#11"/>
    <trip id="359" depart="574.40" from="-1283518687#0" to="-423779397#7"/>
    <trip id="360" depart="576.00" from="1187835577#0" to="-1305177006#10"/>
    <trip id="361" depart="577.60" from="1292111950#0" to="423591184#1"/>
    <trip id="362" depart="579.20" from="-1038727269" to="776796095#9"/>
    <trip id="363" depart="580.80" from="-423591034" to="1221676682#0"/>
    <trip id="364" depart="582.40" from="462681623#8" to="134496050#1"/>
    <trip id="365" depart="584.00" from="682347518#3" to="369835649#2"/>
    <trip id="366" depart="585.60" from="423737637#2" to="39451618#4"/>
    <trip id="367" depart="587.20" from="1056582248#0" to="-369837704#12"/>
    <trip id="368" depart="588.80" from="1255965437" to="423591060#4"/>
    <trip id="369" depart="590.40" from="-1081305215#2" to="423391679#1"/>
    <trip id="370" depart="592.00" from="-423779541#2" to="-189447962#3"/>
    <trip id="371" depart="593.60" from="-1121215126#0" to="369837724#8"/>
    <trip id="372" depart="595.20" from="-661332532#3" to="-1064238108#0"/>
    <trip id="373" depart="596.80" from="-207565747#8" to="-1081105915#4"/>
    <trip id="374" depart="598.40" from="-392064554#2" to="-1428629921"/>
    <trip id="375" depart="600.00" from="-423867644#3" to="-1082241070#0"/>
    <trip id="376" depart="601.60" from="-1040437649#3" to="189289371#1"/>
    <trip id="377" depart="603.20" from="682347519#6" to="343667285#8"/>
    <trip id="378" depart="604.80" from="-1203405285#2" to="759789705#1"/>
    <trip id="379" depart="606.40" from="423400725#2" to="717090091"/>
    <trip id="380" depart="608.00" from="-423754635#1" to="1081746640"/>
    <trip id="381" depart="609.60" from="1214795084" to="952605749#0"/>
    <trip id="382" depart="611.20" from="682899219#6" to="-423591321#2"/>
    <trip id="383" depart="612.80" from="36801849#6" to="-1082003217"/>
    <trip id="384" depart="614.40" from="423737630#1" to="-1117138584#1"/>
    <trip id="385" depart="616.00" from="189131384#6" to="423281053#8"/>
    <trip id="386" depart="617.60" from="773756465#1" to="-423391562#9"/>
    <trip id="387" depart="619.20" from="189447695#3" to="764071331"/>
    <trip id="388" depart="620.80" from="56723584#5" to="-1053499504#0"/>
    <trip id="389" depart="622.40" from="-1203864437" to="952595757#6"/>
    <trip id="390" depart="624.00" from="56723584#30" to="369837698#0"/>
    <trip id="391" depart="625.60" from="369837714#2" to="-774622746"/>
    <trip id="392" depart="627.20" from="1244538416" to="423779472#1"/>
    <trip id="393" depart="628.80" from="-717448199#2" to="-47652182#7"/>
    <trip id="394" depart="630.40" from="-408610892#0" to="1040121963#3"/>
    <trip id="395" depart="632.00" from="1171901721" to="-369835483#4"/>
    <trip id="396" depart="633.60" from="-1243973297" to="-343506908#4"/>
    <trip id="397" depart="635.20" from="-1203405287" to="-1305177006#6"/>
    <trip id="398" depart="636.80" from="-47652180#1" to="374689136#1"/>
    <trip id="399" depart="638.40" from="-423754772#1" to="189430901#0"/>