<?xml version="1.0" encoding="UTF-8"?>

<!-- generated on 2026-02-11 23:38:04 by Eclipse SUMO duarouter Version 1.24.0
<duarouterConfiguration xmlns:xsi="http://www.w3.org/2001/XMLSchema-instance" xsi:noNamespaceSchemaLocation="http://sumo.dlr.de/xsd/duarouterConfiguration.xsd">

    <input>
        <net-file value="osm.net.xml.gz"/>
        <route-files value="osm.passenger.trips.xml"/>
    </input>

    <output>
        <output-file value="osm.passenger.rou.xml"/>
        <alternatives-output value="NUL"/>
    </output>

    <processing>
        <remove-loops value="true"/>
    </processing>

    <time>
        <begin value="0.0"/>
        <end value="3600.0"/>
    </time>

    <report>
        <no-warnings value="true"/>
        <ignore-errors value="true"/>
        <no-step-log value="true"/>
    </report>

</duarouterConfiguration>
-->

<routes xmlns:xsi="http://www.w3.org/2001/XMLSchema-instance" xsi:noNamespaceSchemaLocation="http://sumo.dlr.de/xsd/routes_file.xsd">
    <vType id="veh_passenger" vClass="passenger"/>
    <vehicle id="veh0" type="veh_passenger" depart="0.00" departLane="best">
        <route edges="-369837723#10 -369837723#8 -369837723#7 -369837723#5 -369837723#4 -369837723#3 -369837723#1 -369837723#0 -1428999886#11 -1428999886#10 -1428999886#9 -1428999886#8 -1428999886#7 -1428999886#6 -1428999886#5 -1428999886#3 -1428999886#2 -1428999886#1 -1428999886#0 -369837727#10 -369837727#9 -369837727#8 -369837727#7 -369837727#5 -369837727#4 -369837727#3 -369837727#2 -369837727#1 -369837727#0 -1081309636#4 -1081309636#3 -1081309636#2 -1081309636#1 -1081309636#0 -444065242#22 423754644#5 423754644#6 423754644#7 423754767#1 -717096965#10 -717096965#9 -717096965#8 -717096965#7 -717096965#6 -717096965#5 -717096965#4 -717096965#3 -717096965#2 -717096965#1 -717096965#0 -1039682944#2 -1039682944#1 -1039682944#0 -875092400#3 -875092400#2 -875092400#1 -875092400#0 -875114548#1 875114545#0 875114545#1 -775248397 -423754766#1 -423754766#0 886273322#4 -369835483#17 369837709#0 369837709#1 369837709#2 369837709#3 -369837708#1"/>
    </vehicle>
    <vehicle id="veh1" type="veh_passenger" depart="0.28" departLane="best">
        <route edges="235103510#11 235103510#12 423590906#0 423590906#1 423591258#0 423591258#1 423591258#2 423591258#3 423591258#4 -235103510#4 -235103510#3 -235103510#2 -235103510#1 -235103510#0 -369837717#8 -369837717#7 -369837717#6 -369837717#5 -369837717#4 -369837717#2 -369837717#1 -1429169115#2 -1429169115#1 -207565747#7 -207565747#6 -207565747#4 -207565747#3 -207565747#2 -207565747#1 -207565747#0 1125146033 423754751#0 423754751#1 -1081309636#0 -444065242#22 -444065242#21 -444065242#20 -444065242#19 -444065242#18 -444065242#17 -444065242#16 -444065242#15 -444065242#14 -444065242#13 -444065242#12 -444065242#11 -444065242#10 -444065242#9 -444065242#8 -444065242#7 -444065242#6 -444065242#5 -444065242#4 -444065242#3 -444065242#2 -444065242#1 -444065242#0 369837697#4 1283227094#0 1283227094#1 210364586#1 210364586#2-AddedOnRampEdge 210364586#2 39451609#0 39451609#1 39451609#2 39451609#3 39451609#4 39451609#5 39451609#6 39451609#7 39451609#9 39451609#10-AddedOnRampEdge 39451609#10 39451609#11 39451609#12 39451609#13 39451609#15 39451614#1 39451614#1-AddedOffRampEdge 39451614#2 39451614#4 39451614#5-AddedOnRampEdge 39451614#5 39451623 1187836825#1 189447695#0 189447695#1 189447695#2 189447695#3 189447806#1"/>
    </vehicle>
    <vehicle id="veh2" type="veh_passenger" depart="0.55" departLane="best">
        <route edges="423737613#2 -370186845#7 -370186845#6 -370186845#5 -370186845#4 -370186845#3 -370186845#2 -370186845#1 -370186845#0 -1238270504#2 374688974#1 1185435870#2 1428996007#0 1428996007#1 1081102191#0 1081102191#1 1081102191#2 1081102191#3 1081102191#4 1428965077#0 1428965077#1 -1082003219#5 -1082003219#4 -1082003219#3 -1082003219#2 -1082003219#1 -1082003219#0 -1210949132 -717148841#1 -717148841#0 -1050440006#1 -370186848#3 -370186848#2 370186851#1 1428914452 718983975#0 718983975#1 718983975#2 36801843#4 36801843#5 36801843#6 210364586#1 210364586#2-AddedOnRampEdge 210364586#2 39451609#0 39451609#1 39451609#2 39451609#3 39451609#4 39451609#5 39451609#6 39451609#7 39451609#9 39451609#10-AddedOnRampEdge 39451609#10 39451609#11 -189447858#2 -189447858#1 -1211544676 -1125332263#0"/>
    </vehicle>
    <vehicle id="veh3" type="veh_passenger" depart="0.83" departLane="best">
        <route edges="-423779397#2 -423779397#1 -423779397#0 1042838377#1 56723584#27 56723584#28 56723584#29 56723584#30 56723584#31 56723584#32 56723584#33 56723584#34 56723584#35 56723584#36 56723584#37 56723584#38 56723584#39 56723584#40 56723584#41 169033823#0 169033823#1 36801848#2 36801848#3 36801848#4 36801848#5 36801848#6 36801848#7 585189785#0 585189785#2 585189785#2-AddedOffRampEdge 815127176 59035954#0 59035954#1 59035954#2 59035954#4 59035954#5 59035954#6 59035954#6-AddedOffRampEdge 59035954#7 59035954#9 59035954#10-AddedOnRampEdge 59035954#10 59035954#11 35823179#0 35823179#1 35823179#1-AddedOffRampEdge 35823179#2 35823179#4 35823179#5 35823179#6 35823179#7 35823179#9 35823179#10 35823179#10-AddedOffRampEdge 35823179#11 24576804#0 24576804#1 24576804#2 24576804#3 -760150488 -1184932485#2 -1184932485#1 189447957#0 189447957#1 -189447980#6 -189447980#5 1081392979#0 1243990850 -1056587309#0"/>
    </vehicle>
    <vehicle id="veh4" type="veh_passenger" depart="1.10" departLane="best">
        <route edges="-168928124#12 423591331#6 423591331#7 -423591055#4 -423591055#3 423590916#1 423590916#2 423590916#3 423590916#4 423590916#5 423590916#6 423590916#7 423590916#9 423590916#10 423590916#11 423590916#12 423590916#13 423590916#15 1428999886#10 1428999886#11 369837723#0 369837723#1 423607590#0 369837712#0 369837712#2 369837712#3 369837712#4 369837712#5 369837712#6 369837712#7 952568332#0 952568332#1 952568332#3 952568332#4 952568332#5 952568336 1283518687#0 1283518687#1 1283518687#2 1283518687#3 -1081984267#2 -1081984267#1 -1081984267#0"/>
    </vehicle>
    <vehicle id="veh5" type="veh_passenger" depart="1.38" departLane="best">
        <route edges="-1056582745#0 1056582743 -772429062#0 369837702#15 369837702#17 369837702#18 369837702#19 369837702#20 369837702#21 369837702#22 369837702#24 369837702#25 369837702#26 369837702#27 369837702#28 369837702#29 369837702#31 369837702#32 -1123529191#1 -1123529191#0 36801843#11 36801843#12 36801843#13 39452777 39452777-AddedOffRampEdge 39452778#0 39452778#1 35308230#1 35308230#2-AddedOnRampEdge 35308230#2 35308230#3 35308230#4 35308230#5 35308230#5-AddedOffRampEdge 36167771 35823179#5 35823179#6 35823179#7 35823179#9 35823179#10 35823179#10-AddedOffRampEdge 35823179#11 31950680#0 31950680#1 31950680#2 -189447903#10 -189447903#9 -189447903#8 -189447903#7 -189447903#6 -189447903#5 189447957#4"/>
    </vehicle>
    <vehicle id="veh6" type="veh_passenger" depart="1.66" departLane="best" departSpeed="max">
        <route edges="1245213706#0 1245213706#1 1082241067#1 1082074663#5 -189430883#0 187980737#15 187980737#16 189430920#2 189430920#3 189430920#3-AddedOffRampEdge 189430920#4 585189784 36801843#0-AddedOnRampEdge 36801843#0 36801843#1 36801843#2 36801843#3 -718983975#2 -718983975#1 -718983975#0 -1428914452 -370186851#1 370186848#2 370186848#3 1050440006#1 717148841#0 717148841#1 1210949132 1082003219#0 1082003219#1 1082003219#2 1082003219#3 1082003219#4 1082003219#5 -1428965077#1 -1428965077#0 -1081102191#4 -1081102191#3 -1081102191#2 -1081102191#1 -1081102191#0 -1428996007#1 -1428996007#0 -1185435870#2 -374688974#1 1238270504#2 370186845#0 370186845#1 370186845#2 -423737614#3 -423737614#2 -423737614#1 -423737614#0 1185434337"/>
    </vehicle>
    <vehicle id="veh7" type="veh_passenger" depart="1.93" departLane="best">
        <route edges="-168951941#1 -451099311#0 451098123#1 1185475740 1082064216 1392923856#1 1392923856#2 313488519#1 313488519#2 313488519#3 313488519#4 313488519#5-AddedOnRampEdge 313488519#5 189430873#6 189430920#0 189430920#1 189430920#2 189430920#3 189430920#3-AddedOffRampEdge 189430920#4 585189784 36801843#0-AddedOnRampEdge 36801843#0 36801843#1 36801843#2 36801843#3 36801843#4 36801843#5 36801843#6 36801843#9 36801843#10 36801843#11 36801843#12 36801843#13 39452777 39452777-AddedOffRampEdge 39452778#0 39452778#1 85595486#0 85595486#1 85595486#2 85595486#3 85595486#4 85595486#5 35823389#1 -1283188542 1040505179#0 1040505179#1 -1306282791 1428923596 1040505180#1 1040505180#2 1081128962#0 -1040505172 1040505171 1428923256#0 -1040505170#4 -1040505170#3 -682899219#6 -682899219#5 -682899219#4 -682899219#2 -682899219#1 -682899219#0 369837689#0 -718268726 -718268727#2 -718268727#1 -718268727#0 718268728#1 1056583188 -682895479#1 718284228#1 -682895480#2 -1081128966#2 -1081128966#1 -1081128966#0 -1081128965#4 -1081128965#2 -1081128965#1 -1081128965#0 -1221676691 1221676692 1244504774 1244504773#0"/>
    </vehicle>
    <vehicle id="veh8" type="veh_passenger" depart="2.21" departLane="best">
        <route edges="423280944#13 423280944#14 423280944#15 423280944#16 423280944#17 423280944#19 -103172954#13 -103172954#12 -103172954#11 -103172954#10 -103172954#9 -103172954#7 -103172954#6 -103172954#4 -103172954#3 -103172954#2 -103172954#1 -103172954#0 1428925100#0 1428925100#1 58360990#4 58360990#5 36801848#7 585189785#0 585189785#2 585189785#2-AddedOffRampEdge 189430909 36801843#0-AddedOnRampEdge 36801843#0 36801843#1 36801843#2 36801843#3 36801843#4 36801843#5 36801843#6 36801843#9 36801843#10 36801843#11 36801843#12 36801843#13 39452777 39452777-AddedOffRampEdge 39452778#0 39452778#1 85595486#0 85595486#1 85595486#2 85595486#3 -1283513131 -1040121954#3 -1040121954#2 -1040121954#1"/>
    </vehicle>
    <vehicle id="veh9" type="veh_passenger" depart="2.48" departLane="best">
        <route edges="408602403#0 408602403#1 279990638#1 279990638#2 -1238269981#0 -39452786#7 189131387#11 189131387#12 35308230#4 35308230#5 35308230#5-AddedOffRampEdge 35308230#6 782400648#9 782400648#10-AddedOnRampEdge 782400648#10 782400648#11 187980759 36801849#1 36801849#2 36801849#2-AddedOffRampEdge 36801849#3 36801849#5 36801849#6 36801849#7 36801849#8 36801849#10 36801849#11 36801849#11-AddedOffRampEdge 36801849#12 1428515506#1 1428515506#2-AddedOnRampEdge 1428515506#2 815127175#0 815127175#2 24576821#0 24576821#2 24576821#3 24576821#4 24576821#5 164931218 532739775#0 532739775#1 532739775#2 532739775#3 532739775#4 532739775#5 532739775#6 532739775#7 532739775#8 532739775#9 532739775#10 532739775#11 532739775#12 532739775#13 532739775#14 532739775#15 1275468139#0 1275468139#1 257762098#0 257762098#1 257762098#2 257762098#3 257762098#4 257762098#5 257762098#6 257762098#7 257762098#8"/>
    </vehicle>
    <vehicle id="veh10" type="veh_passenger" depart="2.76" departLane="best">
        <route edges="-423590895#7 -423590895#6 -423590895#5 -423590895#4 -423590895#3 -423590895#2 -423590895#1 -423590895#0 423591060#2 423591060#3 423591060#4 423591060#5 423591060#7 423591175 56723584#2 56723584#3 56723584#4 56723584#5 56723584#6 56723584#7 56723584#8 56723584#10 56723584#11 56723584#12 56723584#13 56723584#14 56723584#15 56723584#16 56723584#17 56723584#18 56723584#19 56723584#20 56723584#21 56723584#22 56723584#23 56723584#24 56723584#25 56723584#26 56723584#27 56723584#28 56723584#29 56723584#30 56723584#31 56723584#32 56723584#33 56723584#34 56723584#35 56723584#36 56723584#37 56723584#38 56723584#39 56723584#40 56723584#41 56723584#42 263819671#1 532739775#0 -169033815#17 708711528 -977466312#36 -977466312#35 -977466312#34 -977466312#33 -977466312#32 -977466312#31 -977466312#30 -977466312#29 -977466312#28 -977466312#27 -977466312#26 -977466312#25 -977466312#24 -977466312#23 -977466312#22 -977466312#21 -977466312#20 -977466312#19 -977466312#18 -977466312#17 -977466312#16 -977466312#15 -977466312#14 -977466312#13 -977466312#12 -977466312#11 -977466312#9 -977466312#8 -977466312#7 -977466312#6 -977466312#5 -977466312#4 -977466312#2 -977466312#1 -977466312#0 -1428925100#0 -103172953#16 -103172953#14 -103172953#13 -103172953#12 -103172953#11 -103172953#10 -103172953#9 -103172953#8 -103172953#7 -103172953#6 -103172953#5 -103172953#4 1428511389#0 1428511389#1"/>
    </vehicle>
    <vehicle id="veh11" type="veh_passenger" depart="3.04" departLane="best">
        <route edges="-717155783 36801843#3 -718983975#2 -718983975#1 -718983975#0 -1428914452 -370186851#1 370186848#2 370186848#3 1050440006#1 717148841#0 717148841#1 1210949132 1082003219#0 1082003219#1 1082003219#2 1082003219#3 1082003219#4 1082003219#5 -1428965077#1 -1428965077#0 -1081102191#4 -1081102191#3 -1081102191#2 -1081102191#1 -1081102191#0 -1428996007#1 -1428996007#0 -1185435870#2 -1185435870#1 -1185435870#0 -1238271287 -423737635#2 -423737635#1 423737568#2 -1185440250#1 -1185440250#0 -423737570#7 -423737570#6 -423737570#5 -423737570#4 -423737570#3 1185442192 423737639#0 423737639#1 423737639#2 423737639#3 423737639#4 423737639#5 423754758#2 -423754672"/>
    </vehicle>
    <vehicle id="veh12" type="veh_passenger" depart="3.31" departLane="best" departSpeed="max">
        <route edges="-1082059018 423283894#8 423283894#9 423283894#10 423283894#11 423283894#12 423283894#13 -103172954#4 -103172954#3 -103172954#2 -103172954#1 -103172954#0 1428925100#0 1428925100#1 58360990#4 58360990#5 36801848#7 585189785#0 585189785#2 585189785#2-AddedOffRampEdge 189430909 36801843#0-AddedOnRampEdge 36801843#0 36801843#1 36801843#2 36801843#3 -718983975#2 -718983975#1 -718983975#0 -1428914452 -370186851#1 370186848#2 370186848#3 1050440006#1 717148841#0 717148840#1 717148840#2 717148840#3 -423754767#3 -423754767#2 -423754767#1 -423754644#7 -423754644#6 -423754725#0 -1185438185#2 -1185438185#1 -1185438185#0"/>
    </vehicle>
    <vehicle id="veh13" type="veh_passenger" depart="3.59" departLane="best">
        <route edges="-168928124#10 -168928124#9 -168928124#8 -168928124#7 -168928124#6 -168928124#5 -168928124#4 -168928124#3 -168928124#2 -1214970058 -168928124#0 235103510#2 423591052#0 423591052#1 423591052#3 423591052#4 423591052#5 423591052#6 423591052#7 423591052#8 423591052#9 423591052#10 423591052#11 423591052#12 423591052#13 423591052#14 423591052#15 423591052#16 56723584#3 56723584#4 56723584#5 56723584#6 56723584#7 56723584#8 56723584#10 56723584#11 56723584#12 56723584#13 56723584#14 56723584#15 56723584#16 56723584#17 56723584#18 56723584#19 56723584#20 56723584#21 56723584#22 56723584#23 56723584#24 56723584#25 56723584#26 56723584#27 56723584#28 56723584#29 56723584#30 56723584#31 56723584#32 56723584#33 56723584#34 56723584#35 56723584#36 56723584#37 56723584#38 56723584#39 56723584#40 56723584#41 56723584#42 263819671#1 532739775#0 532739775#1 532739775#2 532739775#3 532739775#4 532739775#5 532739775#6 532739775#7 532739775#8 532739775#9 532739775#10 532739775#11 532739775#12 532739775#13 532739775#14 532739775#15 1275468139#0 1275468139#1 1275468138 1275468136#0 1275468136#1"/>
    </vehicle>
    <vehicle id="veh14" type="veh_passenger" depart="3.86" departLane="best" departSpeed="max">
        <route edges="408838134#0 1188015350#0 1188015350#1 661405751#0 661405751#1 1425310871#22 1425310879#0 1425310879#1 1425310879#2 1425310879#3 1425310879#3-AddedOffRampEdge 1425310879#4 782400648#1 782400648#2-AddedOnRampEdge 782400648#2 782400648#3 782400648#5 782400648#6 782400648#7 782400648#9 782400648#10-AddedOnRampEdge 782400648#10 782400648#11 187980759 36801849#1 36801849#2 36801849#2-AddedOffRampEdge 36801849#3 36801849#5 36801849#6 36801849#7 36801849#8 36801849#10 36801849#11 36801849#11-AddedOffRampEdge 36801849#12 585189784 36801843#0-AddedOnRampEdge 36801843#0 36801843#1 369837713#0 369837713#1 369837713#2 369837714#0 369837700#0 369837700#1 369837700#2"/>
    </vehicle>
    <vehicle id="veh15" type="veh_passenger" depart="4.14" departLane="best" departSpeed="max">
        <route edges="1056585524 370184263#1 154163566#4 -1089450238 35308151#1 35308151#1-AddedOffRampEdge 35308151#2 782400648#1 782400648#2-AddedOnRampEdge 782400648#2 782400648#3 782400648#5 782400648#6 782400648#7 782400648#9 782400648#10-AddedOnRampEdge 782400648#10 782400648#11 187980759 36801849#1 36801849#2 36801849#2-AddedOffRampEdge 36801849#3 36801849#5 36801849#6 36801849#7 36801849#8 36801849#10 -1079359939 189430870#0 189430870#2 189430870#3 189430870#4 774647980#0 774647979#1"/>
    </vehicle>
    <vehicle id="veh16" type="veh_passenger" depart="4.41" departLane="best" departSpeed="max">
        <route edges="-423607588#1 -168928122#5 -168928122#4 -168928122#3 -168928122#2 -168928122#1 -168928122#0 1081317167 369837720#0 369837720#1 369837720#2 369837720#4 369837720#5 369837720#6 369837720#7 369837720#8 369837720#9 369837720#10 369837720#11 369837720#12 369837720#13 -1081354410#5 -1081354410#4 423607641#0 423607641#1 423607641#2 423607590#0 369837712#0 369837712#2 369837712#3 369837712#4 369837712#5 369837712#6 369837712#7 952568332#0 952568332#1 952568332#3 952568332#4 952568332#5 952568336 1283518687#0 1283518687#1 1283518687#2 1283518687#3 1283518687#4 1283518687#5 1283518687#6 1283518687#7 369837719#15 1283518683#1 1283518683#2 1283518683#3 1283518683#4 1283518683#5 1283518683#6 1283518683#7 1283518683#8 1283518683#9 1283518683#10 1283519006 85595486#5 134070572 1042974967#0 1042974967#1 35308230#1 35308230#2-AddedOnRampEdge 35308230#2 35308230#3 189131387#13 782404745 782404743#0 782404743#1 782404743#2 1381051643 1190366167#0 1190366167#1"/>
    </vehicle>
    <vehicle id="veh17" type="veh_passenger" depart="4.69" departLane="best">
        <route edges="423391655 772396770#1 772396770#3 772396770#4 772396770#5 772396770#6 772396770#7 1120576436#1 202969533#0 202969533#1 202969533#2 202969533#3 202969533#4 202969533#5 202969533#6 202969533#7 202969533#8 202969533#9 202969533#10 202969533#11 202969533#12 202969533#13 202969533#14 202969533#15 202969533#16 -759781320 56723584#21 1012414569#0 1012414569#1 1012414569#2 1012414569#3 1012414569#4 423779443#0 423779443#1 423779443#2 423779440#0 423779471#0 423779471#1 423779542#7 423779443#9 423779443#10 423779443#11 423779443#12 423779443#13 1311739436"/>
    </vehicle>
    <vehicle id="veh18" type="veh_passenger" depart="4.97" departLane="best">
        <route edges="423591258#3 423591110#0 423591110#1 423591052#5 423591052#6 423591052#7 423591052#8 423591052#9 423591052#10 423591052#11 423591052#12 423591052#13 423591052#14 423591052#15 423591052#16 56723584#3 56723584#4 56723584#5 56723584#6 56723584#7 56723584#8 56723584#10 56723584#11 56723584#12 56723584#13 56723584#14 56723584#15 56723584#16 56723584#17 56723584#18 56723584#19 56723584#20 56723584#21 56723584#22 56723584#23 1238475945 1238475946"/>
    </vehicle>
    <vehicle id="veh19" type="veh_passenger" depart="5.24" departLane="best">
        <route edges="189131397#12 189131397#13 189131397#15 1041334715#0 1082064218 313488537#0 313488537#1 313488519#3 313488519#4 313488519#5-AddedOnRampEdge 313488519#5 189430873#6 189430920#0 189430920#1 189430920#2 189430920#3 189430920#3-AddedOffRampEdge 189430920#4 585189784 36801843#0-AddedOnRampEdge 36801843#0 36801843#1 36801843#2 36801843#3 -718983975#2 -718983975#1 -718983975#0 -1428914452 -370186851#1 -370186851#0 -717148842#2 -717148842#1 -717148842#0 717148843#1 682346014#2 717096967#0 -1081105658#1 -1081105658#0"/>
    </vehicle>
    <vehicle id="veh20" type="veh_passenger" depart="5.52" departLane="best">
        <route edges="-189131373#5 -189131373#4 -189131373#3 -189131373#2 -189131373#1 85652053#0 85652053#1 85652053#2 36167773#1 36167773#2 36167773#2-AddedOffRampEdge 36167773#3 36167773#5 36167773#6 36167773#7 36167773#8 782404745 782404743#0 782404743#1 782404743#2 782404743#3 782404743#4 85595486#0 85595486#1 85595486#2 85595486#3 -1283513131 -1040121954#3 682895481#1 682895481#2 682895481#3 682895481#4 682895481#6 682895481#7 682895481#8 -773120298#10 -773120298#8 -773120298#7 -773120298#6 -773120298#5 -773120298#4 -773120298#3 -773120298#2 -773120298#1 -773120298#0 -952595746 952568329#0 952568329#2 952568329#3 952568329#4 952568329#5 952568329#6 952568329#7 1244293062 1056581962#3 715669944#0 715669944#1 715669944#2 715669944#3 715669944#4 715669944#5 1244293056 1244293055#0 1244293055#1 1244293055#2 -423607493#5 -423607493#4 -423607493#3 -423607493#2 -423607493#1 -423607493#0 369837699#1 369837699#2 -423607584#0 1428999886#9 -423590916#15 -423590916#13 -423590916#12 -423590916#11 -423590916#10 -423590916#9 -423590916#7 -423590916#6 -423590916#5 -423590916#4 -423590916#3 -423590916#2 -423590916#1 -423590916#0 423590921#3 423590921#4 423590921#5 423590921#6"/>
    </vehicle>
    <vehicle id="veh21" type="veh_passenger" depart="5.79" departLane="best" departSpeed="max">
        <route edges="-1081721431 1038727266#1 1038727266#2 -1081301914 -189447794#18 1077908310 203598795#7 203598795#8 203598795#10 203598795#11-AddedOnRampEdge 203598795#11 39452775 36801841#0 36801841#1 36801841#1-AddedOffRampEdge 36801841#2 707265938#0 707265938#1 369837697#6 1428922196#0 1428922196#1 1428922196#3 1428922196#5 1428922196#6 1428922195#0 1428922195#1 1428922195#2 1082241070#0 1082241070#1 1082241070#2 1082241070#3 -369837716#4 -369837716#3 -369837716#2 -369837716#1 -369837709#0 369835483#17 -369835648#28 -369835648#27 -369835648#26 -369835648#25 -369835648#23 -369835648#22 -369835648#21 -369835648#20 -369835648#19 -369835648#18 -369835648#16 -369835648#15 -369835648#14 -369835648#13 -369835648#12 -369835648#11 -369835648#9 -369835648#8 -369835648#7 -374688943#2 -374688943#0"/>
    </vehicle>
    <vehicle id="veh22" type="veh_passenger" depart="6.07" departLane="best" departSpeed="max">
        <route edges="-1082233885 886273322#2 886273322#4 -369835483#17 -369835483#16 -369835483#15 -369835483#14 -369835483#12 -369835483#11 -369835483#10 -369835483#9 -369835483#7 -369835483#6 -369835483#5 -369835483#4 -1244014639 -1244015401#3 -1244015401#2 -1244015401#1 -1244015401#0 -369835470#8 -369835470#7 423779389#1 423779389#2 423779389#3 423779389#4 423779389#5 423779389#6 423779389#7 423779389#8 423779389#9 423779389#10 423779515#2 423779515#3 423779484#1 423779484#2 -1205389983#2 -1205389983#1 -1205389983#0 -369835476#4 -369835476#3 -369835476#2 -423400663#0"/>
    </vehicle>
    <vehicle id="veh23" type="veh_passenger" depart="6.35" departLane="best" departSpeed="max">
        <route edges="1243973296#0 1243973297 -717470222#0 -717470221#2 -717470221#1 -717470221#0 1414584922 189447903#1 189447903#2 189447903#3 189447903#4 189447903#5 189447903#6 189447903#7 189447903#8 189447903#9 189447903#10 1425310879#2 1425310879#3 1425310879#3-AddedOffRampEdge 1425310879#4 782400648#1 782400648#2-AddedOnRampEdge 782400648#2 782400648#3 782400648#5 782400648#6 782400648#7 782400648#9 782400648#10-AddedOnRampEdge 782400648#10 782400648#11 187980759 36801849#1 36801849#2 36801849#2-AddedOffRampEdge 36801849#3 36801849#5 36801849#6 36801849#7 36801849#8 36801849#10 36801849#11 36801849#11-AddedOffRampEdge 36801849#12 1428515506#1 1428515506#2-AddedOnRampEdge 1428515506#2 815127175#0 815127175#2 36801847#1 36801847#2 36801847#3 168951946#0 449577160#0 449577160#1 449577160#2 449577160#3 -1185475741 -168951961#6 -168951961#4 451098123#0 -451098562#7 -451098562#6 -451098562#5"/>
    </vehicle>
    <vehicle id="veh24" type="veh_passenger" depart="6.62" departLane="best">
        <route edges="-423591329#1 -423591329#0 -1429169115#2 -1429169115#1 -207565747#7 -207565747#6 -207565747#4 -207565747#3 -207565747#2 -207565747#1 -207565747#0 1125146033 423754751#0 423754751#1 -1081309636#0 -444065242#22 -444065242#21 -444065242#20 -444065242#19 -444065242#18 -444065242#17 -444065242#16 -444065242#15 -444065242#14 -444065242#13 -444065242#12 -444065242#11 -444065242#10 -444065242#9 -444065242#8 -444065242#7 -444065242#6 -444065242#5 -444065242#4 -444065242#3 -444065242#2 -444065242#1 -444065242#0 369837697#4 1283227094#0 1283227094#1 210364586#1 210364586#2-AddedOnRampEdge 210364586#2 39451609#0 39451609#1 39451609#2 39451609#3 39451609#4 39451609#5 39451609#6 39451609#7 39451609#9 39451609#10-AddedOnRampEdge 39451609#10 39451609#11 39451609#12 39451609#13 39451609#15 39451614#1 39451614#1-AddedOffRampEdge 39451614#2 35308228#15 35308228#16-AddedOnRampEdge 35308228#16 35308233#1 35308233#2 35308233#3 -343503829#7 -343503829#6"/>
    </vehicle>
    <vehicle id="veh26" type="veh_passenger" depart="7.17" departLane="best">
        <route edges="1244556309#1 -1244556307#0 189447903#8 189447903#9 189447903#10 1425310879#2 1425310879#3 1425310879#3-AddedOffRampEdge 1425310879#4 782400648#1 782400648#2-AddedOnRampEdge 782400648#2 782400648#3 782400648#5 782400648#6 36167772 35308230#9 35308230#10 35308230#11 35308230#12 764071324#2 189447982#0 189447982#1 189447982#2 764071326#0 764071326#1 764071326#2 764071326#3 764071334#0 764071334#1 764071330#0 764071330#1 189447687#1 189447687#2 189447687#3 189447687#4 189447687#5 774608657#0 -774608657#7 -774608657#6 1306311280"/>
    </vehicle>
    <vehicle id="veh27" type="veh_passenger" depart="7.45" departLane="best" departSpeed="max">
        <route edges="-1244553759#1 -1082064221#0 717467043#5 717467043#6 717467043#7 717467043#8 1244553175 -1076758138#2 -1076758138#0 189430873#4 189430873#5 189430873#6 189430920#0 189430920#1 189430920#2 189430920#3 189430920#3-AddedOffRampEdge 189430920#4 585189784 36801843#0-AddedOnRampEdge 36801843#0 36801843#1 36801843#2 36801843#3 36801843#4 36801843#5 36801843#6 36801843#9 706636796#0 706636796#1 444065242#0 444065242#1 444065242#2 444065242#3 444065242#4 444065242#5 444065242#6 444065242#7 444065242#8 444065242#9 444065242#10 444065242#11 444065242#12 444065242#13 444065242#14 444065242#15 444065242#16 444065242#17 444065242#18 444065242#19 444065242#20 444065242#21 444065242#22 1081309636#0 1081309636#1 1081309636#2 1081309636#3 1081309636#4 369837727#0 369837727#1 369837727#2 369837727#3 369837727#4 369837727#5 369837727#7 369837727#8 369837727#9 369837727#10 1428999886#0 1428999886#1 1428999886#2 1428999886#3 1428999886#5 1428999886#6 1428999886#7 1428999886#8 1428999886#9 1428999886#10 1428999886#11 -369837698#4 -369837698#3 -369837698#1"/>
    </vehicle>
    <vehicle id="veh28" type="veh_passenger" depart="7.73" departLane="best">
        <route edges="1244054812 1079934643#1 1079934643#3 1079934643#4 1079934643#5 -343506900#0 -343506902#2 -343506902#1 -1056589483 39451626#6 715646317#0 715646316#0 715646316#1"/>
    </vehicle>
    <vehicle id="veh29" type="veh_passenger" depart="8.00" departLane="best" departSpeed="max">
        <route edges="875114549 682348188#7 875092400#2 875092400#3 1039682944#0 1039682944#1 1039682944#2 717096965#0 717096965#1 717096965#2 -1081102191#3 -1081102191#2 -1081102191#1 -1081102191#0 -1428996007#1 -1428996007#0 -1185435870#2 -1185435870#1 -1185435870#0 -1238271287 -423737635#2 423737614#5 207565747#0 207565747#1 207565747#2 207565747#3 207565747#4 207565747#6 207565747#7 1429169115#1 1429169115#2 369837717#1 369837717#2 369837717#4 369837717#5 369837717#6 369837717#7 369837717#8 235103510#0 235103510#1 168928124#0 1214970058 168928124#2 168928124#3 168928124#4 168928124#5 168928124#6 168928124#7 168928124#8 168928124#9 168928124#10 168928124#11 168928124#12 168928124#13 168928124#14 168928124#15 168928124#16 168928124#18 168928124#19 168928124#20 168928124#21 168928124#22 168928124#23 168928124#25 168928124#26 168928124#27 1428980099#0 1428980099#2"/>
    </vehicle>
    <vehicle id="veh30" type="veh_passenger" depart="8.28" departLane="best">
        <route edges="1081107626#1 1081107626#2 -1081107624#0 1082059011#3 -773803846#0 35308233#14 35308233#15 35308233#16 35308233#17 39451638#0 39451638#1 39451638#2-AddedOnRampEdge 39451638#2 39451640#1 58360996#3 58360996#4 58360996#5 58360996#6 58360990#0 58360990#1 58360990#3 58360990#4 24576821#2 24576821#3 24576821#4 24576821#5 532739771#0 532739771#1 202969533#0 202969533#1"/>
    </vehicle>
    <vehicle id="veh31" type="veh_passenger" depart="8.55" departLane="best">
        <route edges="423530938#1 -423400696#2 -423400696#1 -423400696#0 369835488#3 369835488#4 369835488#5 202969533#5 1040422762 56723584#29 56723584#30 56723584#31 56723584#32 56723584#33 56723584#34 56723584#35 56723584#36 56723584#37 56723584#38 56723584#39 56723584#40 56723584#41 56723584#42 263819671#1 532739775#0 532739775#1 24576822#0 24576822#1 24576822#2 24576822#3 24576822#4 24576822#5 24576822#6 24576822#7 24576822#8 -103172954#23 -103172954#22 -103172954#21 -103172954#20 -103172954#18 -103172954#17 -423283893#8 423283928#0 423283928#1"/>
    </vehicle>
    <vehicle id="veh32" type="veh_passenger" depart="8.83" departLane="best">
        <route edges="-189289359 782592560#3 782592560#4 782592560#5 782592560#6 782592560#7 782592560#8 59035954#4 59035954#5 59035954#6 59035954#6-AddedOffRampEdge 59035954#7 59035954#9 59035954#10-AddedOnRampEdge 59035954#10 59035954#11 35823179#0 35823179#1 35823179#1-AddedOffRampEdge 35823179#2 35823179#4 35823179#5 35823179#6 35823179#7 39452787#10 39452787#11 39452787#12 39452787#13 39452787#14 39452787#15 39452787#16 -1056588303"/>
    </vehicle>
    <vehicle id="veh33" type="veh_passenger" depart="9.11" departLane="best" departSpeed="max">
        <route edges="-423391565#1 -423391565#0 169033816#8 169033816#9 169033816#10 24576822#8 103172954#24 103172954#25 103172954#26 103172954#27 103172954#28 103172954#29 103172954#30 103172954#31 257763277#2 257763277#3 1275468137 263819666#0 263819666#1 263819666#2 263819666#3 263819666#4 263819666#5 263819666#6 -423391625#1 -423391625#0"/>
    </vehicle>
    <vehicle id="veh34" type="veh_passenger" depart="9.38" departLane="best">
        <route edges="-1428980100#1 -1428980100#0 -168928123#7 -168928123#6 -168928123#5 -168928123#4 -168928123#3 -168928123#2 -168928123#1 -168928123#0 369837698#3 369837698#4 369837698#6 369837699#0 423607493#0 423607493#1 423607493#2 423607493#3 423607493#4 423607493#5 -1244293055#2 -1244293055#1 -1244293055#0 -715669945#2 -715669945#1 -1056581963#3 715669944#1"/>
    </vehicle>
    <vehicle id="veh35" type="veh_passenger" depart="9.66" departLane="best">