<?xml version="1.0" encoding="UTF-8"?>

<!-- generated on 2026-02-17 12:53:23.861270 by randomTrips.py v1_24_0+0000-b72eb3fabc8
<configuration>
    <net-file value="osm.net.xml"/>
    <output-trip-file value="generated/client2.trips.xml"/>
    <route-file value="generated/client2.rou.xml"/>
    <fringe-factor value="2"/>
    <seed value="77"/>
    <period value="1.6"/>
</configuration>
-->

<!-- generated on 2026-02-17 12:53:10 by Eclipse SUMO duarouter Version 1.24.0
<duarouterConfiguration xmlns:xsi="http://www.w3.org/2001/XMLSchema-instance" xsi:noNamespaceSchemaLocation="http://sumo.dlr.de/xsd/duarouterConfiguration.xsd">

    <input>
        <net-file value="osm.net.xml"/>
        <route-files value="generated/client2.trips.xml"/>
    </input>

    <output>
        <output-file value="generated/client2.rou.xml"/>
        <alternatives-output value="NUL"/>
    </output>

    <time>
        <begin value="0"/>
        <end value="3600"/>
    </time>

    <report>
        <no-warnings value="true"/>
        <ignore-errors value="true"/>
        <no-step-log value="true"/>
    </report>

</duarouterConfiguration>
-->

<routes xmlns:xsi="http://www.w3.org/2001/XMLSchema-instance" xsi:noNamespaceSchemaLocation="http://sumo.dlr.de/xsd/routes_file.xsd">
    <vehicle id="0" depart="0.00">
        <route edges="408833001#1 -279990639#2 -279990639#1 -279990639#0 39452787#7 39452787#8 782400648#5 782400648#6 782400648#7 36167773#5 36167773#6 36167773#7 36167773#8 782404745 782404743#0 782404743#1 782404743#2 782404743#3 39452780#0 39452780#1 203598795#11-AddedOnRampEdge 203598795#11 39452775 36801841#0 36801841#1 36801841#1-AddedOffRampEdge 36801841#2 36801843#9 706636796#0 706636796#1 444065242#0 444065242#1 444065242#2 444065242#3 444065242#4 444065242#5 444065242#6 444065242#7 444065242#8 444065242#9 444065242#10 444065242#11 444065242#12 444065242#13 444065242#14 444065242#15 444065242#16 444065242#17 444065242#18 444065242#19 444065242#20 444065242#21 444065242#22 1081309636#0 -423754751#1 -423754751#0 -1125146033 207565747#0 207565747#1 207565747#2 207565747#3 207565747#4 207565747#6 207565747#7 207565747#8 207565747#9 207565747#10 207565747#11 207565747#13 207565747#14 207565747#15 207565747#16 -423590906#9 -423590906#8 -423590906#7 -423590906#6 -423590906#5 -423590906#4 -423590906#3 423590890#0 -423591283#2 -423591327#7"/>
    </vehicle>
    <vehicle id="1" depart="1.60">
        <route edges="-279990641#0 -1238271500 -1081302566 189131387#10 189131387#11 189131387#12 189131387#13 782404745 782404743#0 782404743#1 782404743#2 782404743#3 39452780#0 39452780#1 203598795#11-AddedOnRampEdge 203598795#11 39452775 36801841#0 36801841#1 36801841#1-AddedOffRampEdge 36801841#2 36801843#9 706636796#0 706636796#1 444065242#0 444065242#1 444065242#2 444065242#3 444065242#4 444065242#5 444065242#6 444065242#7 444065242#8 444065242#9 444065242#10 444065242#11 444065242#12 444065242#13 444065242#14 444065242#15 444065242#16 444065242#17 444065242#18 444065242#19 444065242#20 444065242#21 444065242#22 1081309636#0 -423754751#1 -423754751#0 -1125146033 207565747#0 207565747#1 207565747#2 207565747#3 207565747#4 207565747#6 207565747#7 207565747#8 207565747#9 207565747#10 -423591274#4 -423591274#3 423590891#3"/>
    </vehicle>
    <vehicle id="2" depart="3.20">
        <route edges="-1185644029#1 1081989676#0 1255571849 189131387#12 189131387#13 782404745 782404744#0 782404744#1 782404744#2 782404744#3 782404744#4 782404744#5 782404744#7 782404744#8 782404744#9 782404744#10 782404744#11 782404744#12 782404744#13 782404744#14 782404744#16 782404744#17 782404744#18 35308151#0 1089450238 -154163566#4 -154163566#3 -154163566#2 -1056585531#1 -1056585531#0 1425310869#16 1425310869#17 1056585538"/>
    </vehicle>
    <vehicle id="3" depart="4.80">
        <route edges="1081984263#0 1081984263#1 -1081984263#1 -1081984263#0 682347516#1 952568339#0 952568339#1 952568339#2 -369837692#7 -369837692#6 -369837692#5 -369837692#4 -369837692#3 -953260284#4 -953260284#3 -953260284#2 -953260284#1 -953260284#0 -953260283#2 -953260283#1 -953260283#0 953260282 -1081113606#13 -1081113606#12 -1081113606#10 -1081113606#9 -1081113606#8 -1081113606#7 -1081113606#6 -1081113606#5 -1081113606#3 -1081113606#2 -1081113606#1 -1081113606#0 -1081996203#1 -1081996203#0 36801843#12 36801843#13 39452777 39452777-AddedOffRampEdge 39452778#0 39452778#1 35308230#1 35308230#2-AddedOnRampEdge 35308230#2 35308230#3 35308230#4 35308230#5 35308230#5-AddedOffRampEdge 36167771 35823179#5 35823179#6 -1255563202 1255563205#0"/>
    </vehicle>
    <vehicle id="4" depart="6.40">
        <route edges="-1244002218#7 1244002218#7 1079934643#5 343506900#1 343506900#2 1077869401 35308233#5 35308233#6 35308233#7 35308233#9 35308233#10 35308233#11 35308233#13 35308233#14 35308233#15 35308233#16 35308233#17 39451638#0 39451638#1 39451638#2-AddedOnRampEdge 39451638#2 39451640#1 58360996#3 58360996#4 58360996#5 58360996#6 58360996#7 58360996#8 1392923856#0 1392923856#1 1392923856#2"/>
    </vehicle>
    <vehicle id="5" depart="8.00">
        <route edges="1049863764#1 -462681623#10 462681627 444065242#6 444065242#7 444065242#8 444065242#9 444065242#10 444065242#11 444065242#12 444065242#13 444065242#14 444065242#15 444065242#16 444065242#17 444065242#18 444065242#19 444065242#20 444065242#21 444065242#22 1081309636#0 -423754751#1 -423754751#0 -1125146033 207565747#0 207565747#1 207565747#2 207565747#3 207565747#4 207565747#6 207565747#7 1429169115#1 1429169115#2 369837717#1 369837717#2 369837717#4 369837717#5 369837717#6 369837717#7 423591321#0 423591321#1 423591321#2 423591321#3 423591321#4 423591321#5 423591321#6 423591321#7"/>
    </vehicle>
    <vehicle id="6" depart="9.60">
        <route edges="-1056583187 1056583185 718268727#0 718268727#1 718268727#2 718268726 -369837689#0 682899219#0 682899219#1 682899219#2 682899219#4 682899219#5 682899219#6 1040505170#3 1040505170#4 -1428923256#0 -1040505171 1040505172 -1081128962#0 -1040505180#2 -1040505180#1 -1428923596 1306282791 -1040505179#1 -1040505179#0 -1428929742 -705056990#7 1283519006 85595486#5 134070572 1042974967#0 1042974967#1 35308230#1 35308230#2-AddedOnRampEdge 35308230#2 35308230#3 35308230#4 35308230#5 35308230#5-AddedOffRampEdge 35308230#6 35308230#8 35308230#9 35308230#10 35308230#11 35308230#12 764071324#2 189447982#0 189447982#1 189447982#2 764071326#0 764071326#1 764071333#0 764071333#0-AddedOffRampEdge 764071333#1 35308228#10 35308228#11 35308228#12 39451616 39451614#5-AddedOnRampEdge 39451614#5 39451626#0 39451626#1 39451626#2 39451626#3 1080002854 718264165#0 718264165#1 718264165#2"/>
    </vehicle>
    <vehicle id="7" depart="11.20">
        <route edges="-1311684301#1 -423391705#0 1275468135#1 263819666#0 263819666#1 263819666#2 263819666#3 263819666#4 263819666#5 263819666#6 263819666#7 263819666#8 263819666#9 263819666#10 1120576436#1 36801848#0 36801848#1 36801848#2 -1391516347 1081701745#0 1081701745#1 1081701745#2 1081701745#3 1081701745#5 1081701745#7 -369835489#5 -423400629#9 -423400629#8 -423400629#7 -423400629#6 -423400629#5 -423400629#4 423400633"/>
    </vehicle>
    <vehicle id="8" depart="12.80">
        <route edges="1056582225 -716027565#0 1081113606#1 1081113606#2 1081113606#3 1081113606#5 1081113606#6 1081113606#7 1081113606#8 1081113606#9 1081113606#10 1081113606#12 1081113606#13 -953260282 953260283#0 953260283#1 953260283#2 953260284#0 953260284#1 953260284#2 953260284#3 953260284#4 369837692#3 369837692#4 369837692#5 369837692#6 369837692#7 -952568339#2 -952568339#1 -952568339#0 1244293057 1244293058 682347520#1 682347520#2 682347520#3 1081310725#0 1081310725#1 -1081310726 -1040445663#0 -423607644#0 -1428963661#5 -1049898849#2 -1049898849#1 -1049898849#0 -423607585 1428999886#5 1428999886#6 1428999886#7 1428999886#8 1428999886#9 -423590916#15 -423590916#13 -423590916#12 -423590916#11 -423590916#10 -423590916#9 -423590916#7 -423590916#6 -423590916#5 -423590916#4 -423590916#3 -423590916#2 423591077"/>
    </vehicle>
    <vehicle id="9" depart="14.40">
        <route edges="-1428629922#6 1428629922#6 103172953#1 103172953#2 103172953#3 103172953#4 103172953#5 103172953#6 103172953#7 103172953#8 103172953#9 103172953#10 103172953#11 103172953#12 103172953#13 103172953#14 103172953#16 1428925100#0 1428925100#1 58360990#4 58360990#5 36801848#7 585189785#0 585189785#2 585189785#2-AddedOffRampEdge 189430909 36801843#0-AddedOnRampEdge 36801843#0 36801843#1 36801843#2 36801843#3 36801843#4 36801843#5 36801843#6 36801843#9 706636796#0 706636796#1 444065242#0 444065242#1 444065242#2 444065242#3 444065242#4 444065242#5 444065242#6 444065242#7 444065242#8 444065242#9 444065242#10 444065242#11 444065242#12 444065242#13 444065242#14 444065242#15 444065242#16 444065242#17 444065242#18 444065242#19 444065242#20 444065242#21 444065242#22 1081309636#0 1081309636#1 1081309636#2 1081309636#3 1081309636#4 369837727#0 369837727#1 369837727#2 369837727#3 369837727#4 369837727#5 369837727#7 369837727#8 369837727#9 369837727#10 1428999886#0 1428999886#1 1428999886#2 1428999886#3 1428999886#5 1428999886#6 1428999886#7 1428999886#8 1428999886#9 1428999886#10 1428999886#11 -369837698#4 -369837698#3 168928123#0 168928123#1 168928123#2 -423591292#13 -423591292#12"/>
    </vehicle>
    <vehicle id="10" depart="16.00">
        <route edges="-1082227001 -1244005428 -1082227004#2 -1082227004#1 -1082227004#0 -369837715#8 -369837715#7 -369837715#6 -369837715#5 -369837715#4 -369837715#3 -369837715#2 -369837715#1 -369837715#0 -369837714#2 -369837714#1 -369837714#0 -369837713#2 -369837713#1 -369837713#0 36801843#2 36801843#3 36801843#4 36801843#5 36801843#6 36801843#9 36801843#10 36801843#11 36801843#12 36801843#13 39452777 39452777-AddedOffRampEdge 39452778#0 39452778#1 39452778#3 39452778#4 608989233#0 608989233#1 608989233#2 39452785#1 39452785#2 -189447794#13 39452782#0 39452782#1 39452782#2 408610896#0 408610896#1"/>
    </vehicle>
    <vehicle id="11" depart="17.60">
        <route edges="-1428995074#0 -1428965076 -717096966#5 -717096966#4 -717096966#3 -717096966#2 -717096966#1 -717096966#0 -1081102191#4 -1081102191#3 -1081102191#2 -1081102191#1 -1081102191#0 -1428996007#1 -1428996007#0 -1185435870#2 -1185435870#1 -1185435870#0 -1238271287 -423737635#2 -423737635#1 423737568#2 -1185440250#1 -1185440250#0 -423737570#7 -423737570#6 -423737570#5 -423737570#4 -423737570#3 1185442192 423737639#0 423737639#1 -423737640#4 -423737640#3 -423737640#2 -423737640#1 -423737640#0 -1236550875#3 -1236550875#2 -1236550875#1 -1236550875#0 56723584#11 56723584#12 56723584#13 56723584#14 56723584#15 56723584#16 56723584#17 56723584#18 56723584#19 56723584#20 56723584#21 56723584#22 56723584#23 56723584#24 56723584#25 56723584#26 56723584#27 56723584#28 56723584#29 56723584#30 56723584#31 56723584#32 56723584#33 56723584#34 56723584#35 56723584#36 56723584#37 56723584#38 56723584#39 56723584#40 56723584#41 56723584#42 263819671#1 532739775#0 532739775#1 532739775#2 532739775#3 532739775#4 532739775#5 532739775#6 532739775#7 532739775#8 532739775#9 532739775#10 532739775#11 532739775#12 532739775#13 -423391746#2 -423391758#5 -423391758#4 -423391758#3 -1082249452"/>
    </vehicle>
    <vehicle id="12" depart="19.20">
        <route edges="-168928124#25 -168928124#23 -168928124#22 -168928124#21 -168928124#20 -168928124#19 -168928124#18 -168928124#16 -168928124#15 -168928124#14 -168928124#13 -168928124#12 -168928124#11 -168928124#10 -168928124#9 -168928124#8 -168928124#7 -168928124#6 -168928124#5 -168928124#4 -168928124#3 -168928124#2 -1214970058 -168928124#0 235103510#2 423591052#0 423591052#1 423591052#3 423591052#4 423591052#5 423591052#6 423591052#7 423591052#8 423591052#9 423591052#10 423591052#11 423591052#12 423591052#13 423591052#14 423591052#15 423591052#16 56723584#3 56723584#4 56723584#5 56723584#6 56723584#7 56723584#8 56723584#10 56723584#11 56723584#12 56723584#13 56723584#14 369837703#0 369837703#1 369837703#2 369837703#3 374688975#1 1185430285"/>
    </vehicle>
    <vehicle id="13" depart="20.80">
        <route edges="-715646314#2 -715646314#1 -715646314#0 1203870551#4 1203870551#5 39451608#3 39451608#3-AddedOffRampEdge 39451618#1 39451618#3 39451618#4-AddedOnRampEdge 39451618#4 39451611 1428511836#1 1428511836#2 39451612#0 39451612#1 39451612#2 39451612#2-AddedOffRampEdge 39451612#3 39451612#5 39451612#6 39451612#7 39451612#8 39451612#9 39451612#11 39451612#12 39451612#13 39451612#13-AddedOffRampEdge 39451612#14 36801843#9 706636796#0 706636796#1 444065242#0 444065242#1 444065242#2 444065242#3 444065242#4 444065242#5 444065242#6 444065242#7 444065242#8 444065242#9 444065242#10 444065242#11 444065242#12 444065242#13 444065242#14 444065242#15 444065242#16 444065242#17 444065242#18 444065242#19 444065242#20 444065242#21 444065242#22 1081309636#0 -423754751#1 -423754751#0 -1125146033 207565747#0 207565747#1 207565747#2 207565747#3 207565747#4 -1236537353#1 -1236537353#0 1238289074 1236537352 207565747#21 207565747#22 207565747#23"/>
    </vehicle>
    <vehicle id="14" depart="22.40">
        <route edges="-1081738394#1 1081738398 -1221676695#1 -1221676695#0 -369837698#10 -369837698#9 -369837698#8 -369837698#6 -1428999886#11 -1428999886#10 -1428999886#9 -1428999886#8 -1428999886#7 -1428999886#6 -1428999886#5 -1428999886#3 -1428999886#2 -1428999886#1 -1428999886#0 -369837727#10 -369837727#9 -369837727#8 1428999970#0 1428999970#1 1428999970#3 1428999970#4 1428999970#5 1428999970#6 1428999970#8 1428999970#9 1428999970#10 1428999970#11 1428999970#12 1428999970#13 1428999970#14 1428999970#15 -369837717#8 423591321#0 423591321#1 423591321#2 423591321#3 423591321#4 423591321#5 423591321#6 423591321#7 423590906#6 1429146380#0 1429146380#1 1429146380#2 1429146380#3 1429146380#4 1429146380#5 1429146380#6 1429146380#7 423591177#1"/>
    </vehicle>
    <vehicle id="15" depart="24.00">
        <route edges="782400648#10-AddedOnRampEdge 782400648#10 782400648#11 187980759 36801849#1 36801849#2 36801849#2-AddedOffRampEdge 36801849#3 39451612#5 39451612#6 39451612#7 39451612#8 39451612#9 39451612#11 39451612#12 39451612#13 39451612#13-AddedOffRampEdge 39451612#14 36801843#9 706636796#0 706636796#1 444065242#0 444065242#1 444065242#2 444065242#3 444065242#4 444065242#5 444065242#6 444065242#7 444065242#8 444065242#9 444065242#10 444065242#11 444065242#12 444065242#13 444065242#14 444065242#15 444065242#16 444065242#17 444065242#18 444065242#19 444065242#20 444065242#21 444065242#22 1081309636#0 1081309636#1 1081309636#2 1081309636#3 1081309636#4 369837727#0 369837727#1 369837727#2 369837727#3 369837727#4 369837727#5 369837727#7 369837727#8 369837727#9 369837727#10 1428999886#0 1428999886#1 1428999886#2 1428999886#3 1428999886#5 1428999886#6 1428999886#7 1428999886#8 1428999886#9 1428999886#10 1428999886#11 -369837698#4 -369837698#3 -369837698#1 369837698#1"/>
    </vehicle>
    <vehicle id="16" depart="25.60">
        <route edges="35308150#0 35308150#2 35308150#2-AddedOffRampEdge 189447910 35823390#2-AddedOnRampEdge 35823390#2 1425310879#0 1425310879#1 1425310879#2 1425310879#3 1425310879#3-AddedOffRampEdge 1425310879#4 35823180#1 35823180#2-AddedOnRampEdge 35823180#2 35823180#3 35823181#1 35823181#2 35823181#3 35823181#3-AddedOffRampEdge 35823181#4 1376114333#1 1376114333#2-AddedOnRampEdge 1376114333#2 1376114333#3 1376114333#4 1376114333#5 35823389#1 -1283188542 1040505179#0 1040505179#1 -1306282791 1428923596 1040505180#1 1040505180#2 1081128962#0 -1040505172 1040505171 1428923256#0 -1040505170#4 -1040505170#3 -682899219#6 -682899219#5 -682899219#4 -682899219#2 -682899219#1 -682899219#0 369837689#0 -718268726 -718268727#2 -718268727#1 -718268727#0 718268728#1 718268728#2 -952568332#3 -952568332#1 -952568332#0 -1244386442 -369837712#6 -369837712#5 -369837712#4 -369837712#3 -369837712#2 -369837712#0 -423607590#0 -369837723#1 -369837723#0 -369837698#4 -369837698#3 168928123#0 168928123#1 168928123#2 168928123#3 423591118#1 423591055#0 423591311#1"/>
    </vehicle>
    <vehicle id="17" depart="27.20">
        <route edges="-1116858402 -1245233645 189430887#2 189430887#3 189430905#3 189430905#4 189430905#5 39451612#1 39451612#2 39451612#2-AddedOffRampEdge 39451612#3 39451612#5 39451612#6 39451612#7 39451612#8 39451612#9 39451612#11 39451612#12 39451612#13 39451612#13-AddedOffRampEdge 39451612#14 36801843#9 706636796#0 706636796#1 444065242#0 444065242#1 444065242#2 -1050440928 -369837702#22 -369837702#21 -369837702#20 -369837702#19 -369837702#18 -369837702#17 -369837702#15 -369837702#13 -369837702#12 -369837702#11 -369837702#10 -369837702#9 446924545#1 446924545#2 -1053499504#1 1053499506#0"/>
    </vehicle>
    <vehicle id="18" depart="28.80">
        <route edges="-1081994912#0 -1081994911#0 -47652180#1 -47652180#0 36801841#1 36801841#1-AddedOffRampEdge 36801841#2 36801841#4 36801841#5-AddedOnRampEdge 36801841#5 36801841#6 36801841#7 36801841#7-AddedOffRampEdge 36801841#8 1428515506#1 1428515506#2-AddedOnRampEdge 1428515506#2 815127175#0 815127175#2 24576821#0 24576821#2 24576821#3 -977466318 -423283924#1 -423283924#0 103172954#13 -423280944#19 -423280944#17 -423280944#16 -423280944#15 -423280944#14 -423280944#13 -423280944#11 -423280944#10 -423280944#9 -423280944#8 -423280944#7 -423280944#6 -423280944#5 -423280944#4 -423280944#3 1081318164 423280934#1"/>
    </vehicle>
    <vehicle id="19" depart="30.40">
        <route edges="1081113606#9 -1081113606#9 -1081113606#8 -1081113606#7 -1081113606#6 -1081113606#5 -1081113606#3 -1081113606#2 -1081113606#1 -1081113606#0 -1081996203#1 -1081996203#0 36801843#12 36801843#13 39452777 39452777-AddedOffRampEdge 39452778#0 39452778#1 35308230#1 35308230#2-AddedOnRampEdge 35308230#2 35308230#3 35308230#4 35308230#5 35308230#5-AddedOffRampEdge 35308230#6 35308230#8 35308230#9 1283095391 -764071329#6 -764071329#5 -764071329#4 -764071329#3 -764071329#2 -764071329#1 1191697815#0 -1191697815#0"/>
    </vehicle>
    <vehicle id="20" depart="32.00">
        <route edges="-717138661#1 -717138661#0 -717138662#0 1078191849 168951946#9 189430920#3 189430920#3-AddedOffRampEdge 189430920#4 59035954#0 59035954#1 59035954#2 59035954#4 59035954#5 59035954#6 59035954#6-AddedOffRampEdge 59035954#7 59035954#9 59035954#10-AddedOnRampEdge 59035954#10 59035954#11 35823179#0 35823179#1 35823179#1-AddedOffRampEdge 35823179#2 35823179#4 35823179#5 35823179#6 35823179#7 39452787#10 39452787#11 39452787#12 39452787#13 39452787#14 39452787#15 39452787#16 39452787#17 39452787#18"/>
    </vehicle>
    <vehicle id="21" depart="33.60">
        <route edges="1081354410#3 423607641#0 423607641#1 423607641#2 423607590#0 369837712#0 369837712#2 369837712#3 369837712#4 369837712#5 369837712#6 369837712#7 952568332#0 952568332#1 952568332#3 952568332#4 952568332#5 952568336 1283518687#0 1283518687#1 1283518687#2 1283518687#3 1283518687#4 1283518687#5 1283518687#6 1283518687#7 369837719#15 1283518683#1 1283518683#2 1283518683#3 1283518683#4 1283518683#5 1283518683#6 1283518683#7 1283518683#8 1283518683#9 1283518683#10 1283519006 85595486#5 134070572 1042974967#0 1042974967#1 35308230#1 35308230#2-AddedOnRampEdge 35308230#2 35308230#3 35308230#4 1185644031 1185644033#0 1185644033#1 -1238269980#0"/>
    </vehicle>
    <vehicle id="22" depart="35.20">
        <route edges="623832912#4 -623832912#4 -623832912#3 -623832912#2 -623832912#1 -623832912#0 -1081988546#0 47290483#4 47290483#5 47290483#6 47290483#7 47290483#8 47290483#9 47290483#10 203598795#0 203598795#1 203598795#2-AddedOnRampEdge 203598795#2 203598795#3 203598795#6 203598795#7 203598795#8 203598795#10 203598795#11-AddedOnRampEdge 203598795#11 39452775 36801841#0 36801841#1 36801841#1-AddedOffRampEdge 36801841#2 36801841#4 36801841#5-AddedOnRampEdge 36801841#5 36801841#6 36801841#7 36801841#7-AddedOffRampEdge 36801841#8 1428515506#1 1428515506#2-AddedOnRampEdge 1428515506#2 815127175#0 815127175#2 36801847#1 36801847#2 36801847#3 58360990#3 -1428925100#1 -1428925100#0 -103172953#16 -103172953#14 -103172953#13 -103172953#12 -103172953#11 -103172953#10 -103172953#9 -103172953#8 -103172953#7 -103172953#6 -103172953#5 -103172953#4 -103172953#3 1081321765#0 1081321765#1 423293470#2 -1081313475 -423293455#3 -423293455#2 -423293455#1 -423293455#0 -1081314862#1 -1081314862#0"/>
    </vehicle>
    <vehicle id="23" depart="36.80">
        <route edges="423590914#12 423591299#2 423591262#2 -423591301#3 -423591301#2 -423591301#1 -423591301#0 -235103510#6 -235103510#4 -235103510#3 -235103510#2 -235103510#1 -235103510#0 -369837717#8 -369837717#7 -369837717#6 -369837717#5 -369837717#4 -369837717#2 -369837717#1 -1429169115#2 -1429169115#1 -207565747#7 -207565747#6 -207565747#4 -207565747#3 -207565747#2 -207565747#1 -207565747#0 1125146033 423754751#0 423754751#1 -1081309636#0 -444065242#22 -444065242#21 -444065242#20 -444065242#19 -444065242#18 -444065242#17 -444065242#16 -444065242#15 -444065242#14 -444065242#13 -444065242#12 -444065242#11 -444065242#10 -444065242#9 -444065242#8 -444065242#7 -444065242#6 -444065242#5 -444065242#4 -444065242#3 -444065242#2 -444065242#1 -444065242#0 369837697#4 1283227094#0 1283227094#1 210364586#1 210364586#2-AddedOnRampEdge 210364586#2 39451609#0 39451609#1 39451609#2 39451609#3 39451609#4 39451609#5 39451609#6 39451609#7 36801849#5 36801849#6 36801849#7 -1042838379 -782592561#3 1116507605#0 1116507605#1 1116507605#2 1253899919 189430891#0 -774638593#2 -774638593#0 774638593#0"/>
    </vehicle>
    <vehicle id="24" depart="38.40">
        <route edges="36801846#2 36801846#3 36801846#4 1428515097#0 59035954#4 59035954#5 59035954#6 59035954#6-AddedOffRampEdge 59035954#7 59035954#9 59035954#10-AddedOnRampEdge 59035954#10 59035954#11 35823179#0 35823179#1 35823179#1-AddedOffRampEdge 35823179#2 35823179#4 35823179#5 35823179#6 35823179#7 35823179#9 35823179#10 35823179#10-AddedOffRampEdge 39451647 35823180#2-AddedOnRampEdge 35823180#2 35823180#3 1205855896#0 1205855896#1 1205855896#2 1205847402#0 1205847402#1 717036763#0 717036763#1"/>
    </vehicle>
    <vehicle id="25" depart="40.00">
        <route edges="1079934643#1 -1079934643#1 -1079934643#0 343503831#11 1430218908 35308233#6 35308233#7 24576807#11 24576807#12-AddedOnRampEdge 24576807#12 189430873#3 189430873#4 189430873#5 189430873#6 189430920#0 189430920#1 189430920#2 189430920#3 189430920#3-AddedOffRampEdge 189430920#4 585189784 36801843#0-AddedOnRampEdge 36801843#0 36801843#1 36801843#2 36801843#3 36801843#4 36801843#5 36801843#6 36801843#9 36801843#10 36801843#11 36801843#12 36801843#13 39452777 39452777-AddedOffRampEdge 39452778#0 39452778#1 85595486#0 85595486#1 85595486#2 1042974965 1042974966 -1082003221#1 1162760983#0 1238477692 279990632#0 -279990644#1"/>
    </vehicle>
    <vehicle id="26" depart="41.60">
        <route edges="-776796096#4 -776796094 -776796095#9 -776796095#8 -776796095#7 -776796095#6 -776796095#5 -776796095#4 -776796095#3 -776796095#2 -776796095#1 -776796095#0 1042838379 36801849#8 36801849#10 36801849#11 36801849#11-AddedOffRampEdge 36801849#12 585189784 36801843#0-AddedOnRampEdge 36801843#0 36801843#1 369837713#0 369837713#1 369837713#2 369837713#3 369837713#4 369837713#5 369837713#6 1428954063#1 1428954063#2 1428954063#3 1428954063#4 1428954063#5 1428954063#6 -369837716#4 -369837716#3 -369837716#2 -369837716#1 -369837709#0 369835483#17 -369835648#28 -369835648#27 -369835648#26 -369835648#25 -369835648#23 -369835648#22 -369835648#21 -369835648#20 -369835648#19 -369835648#18 -369835648#16 -369835648#15 -369835648#14 -369835648#13 -369835648#12 -369835648#11 374689135#0 374689135#1 369835649#15 369835649#16 369835649#17"/>
    </vehicle>
    <vehicle id="27" depart="43.20">
        <route edges="369837718#6 369837718#7 423607638#0 423607638#1 423607638#2 423607638#3 423607638#4 -1214968659#0 207565747#8 207565747#9 207565747#10 207565747#11 207565747#13 207565747#14 207565747#15 207565747#16 207565747#17 207565747#18 207565747#19 207565747#20 207565747#21 207565747#22 207565747#23 207565747#24 207565747#25 207565747#26 207565747#27 207565747#28 207565747#29 207565747#30 207565747#31 56723584#4 56723584#5 56723584#6 56723584#7 56723584#8 56723584#10 56723584#11 56723584#12 56723584#13 56723584#14 56723584#15 56723584#16 56723584#17 56723584#18 56723584#19 56723584#20 56723584#21 56723584#22 56723584#23 56723584#24 56723584#25 56723584#26 56723584#27 56723584#28 56723584#29 56723584#30 56723584#31 56723584#32 56723584#33 56723584#34 56723584#35 56723584#36 56723584#37 56723584#38 56723584#39 56723584#40 56723584#41 169033823#0 169033823#1 36801848#2 36801848#3 36801848#4 36801848#5 36801848#6 36801848#7 36801847#0 36801847#1 36801847#2 36801847#3 168951946#0 449577160#0 449577160#1 449577160#2 451098562#1 -451099331"/>
    </vehicle>
    <vehicle id="28" depart="44.80">
        <route edges="708711529#0 708711528 977466312#37 532739771#0 532739771#1 36801848#0 36801848#1 36801848#2 36801848#3 36801848#4 36801848#5 36801848#6 36801848#7 585189785#0 585189785#2 585189785#2-AddedOffRampEdge 815127176 59035954#0 59035954#1 59035954#2 59035954#4 59035954#5 59035954#6 59035954#6-AddedOffRampEdge 59035954#7 39451609#9 39451609#10-AddedOnRampEdge 39451609#10 39451609#11 39451609#12 39451609#13 1428511835#1 1428511835#2 1428511835#3 1428511835#4 187980764#1 -1056590731#0"/>
    </vehicle>
    <vehicle id="29" depart="46.40">
        <route edges="1040121963#0 -1056582244#1 -1056582244#0 1081980688#0 1081980688#1 1428924413 1081980687 1376112030 -369837707#5 -369837707#4 -369837707#3 -369837707#1 -369837707#0 -369837702#31 -1056582259 369837697#3 369837697#4 1283227094#0 1283227094#1 36801841#4 36801841#5-AddedOnRampEdge 36801841#5 36801841#6 36801841#7 36801841#7-AddedOffRampEdge 36801841#8 1428515506#1 1428515506#2-AddedOnRampEdge 1428515506#2 815127175#0 815127175#2 24576821#0 24576821#2 24576821#3 -977466318 -423283924#1 423283933#6 423283933#7 423293460#1 -1428927916#4 -1428927916#2 -1428927916#1 -1428927916#0 -1428928034#1 -1428928034#0 -423280939#9 -423280939#8 -423280939#7 -423280939#6 -423280939#5 -423280939#4 -423280939#3 -1074140538#0"/>
    </vehicle>
    <vehicle id="30" depart="48.00">
        <route edges="-423607491#3 423607576#1 423607560#3 -423591306#1 -423591306#0 -235103510#22 -235103510#21 -235103510#20 -235103510#19 -235103510#18 -235103510#16 -235103510#15 -235103510#14 -235103510#13 -235103510#12 -235103510#11 -235103510#10 -235103510#9 -235103510#8 -235103510#7 -235103510#6 -235103510#4 -235103510#3 -235103510#2 -235103510#1 -235103510#0 -369837717#8 -369837717#7 -369837717#6 -369837717#5 -369837717#4 -369837717#2 -369837717#1 -1429169115#2 -1429169115#1 -207565747#7 -207565747#6 -207565747#4 -207565747#3 -207565747#2 -207565747#1 -207565747#0 -1185438184#0 423737635#2 1238271287 1185435870#0 1185435870#1 1185435870#2 1428996007#0 1428996007#1 1081102191#0 1081102191#1 1081102191#2 1081102191#3 1081102191#4 1428965077#0 -717096967#3 -1081105657#1 1056581948#0 -1081105658#0 -1428931091#2 -1428931091#0 -875114562#2 682347158 -682347160#1 -682347160#0 875150161"/>
    </vehicle>
    <vehicle id="31" depart="49.60">
        <route edges="-1187835575#0 -423737569#2 -423737569#1 -423737569#0 1429000797#5 1236537353#0 1236537353#1 -207565747#4 -207565747#3 -207565747#2 -207565747#1 -207565747#0 1125146033 423754751#0 423754751#1 -1081309636#0 -444065242#22 -444065242#21 -444065242#20 -444065242#19 -444065242#18 -444065242#17 -444065242#16 -444065242#15 -444065242#14 -444065242#13 -444065242#12 -444065242#11 -444065242#10 -444065242#9 -444065242#8 -444065242#7 -444065242#6 -444065242#5 -444065242#4 -444065242#3 -444065242#2 -444065242#1 -444065242#0 -706636796#1 -706636796#0 36801843#10 36801843#11 36801843#12 36801843#13 39452777 39452777-AddedOffRampEdge 39452778#0 39452778#1 35308230#1 35308230#2-AddedOnRampEdge 35308230#2 35308230#3 35308230#4 35308230#5 35308230#5-AddedOffRampEdge 36167771 35823179#5 35823179#6 35823179#7 35823179#9 35823179#10 35823179#10-AddedOffRampEdge 35823179#11 24576804#0 24576804#1 24576804#2 1184935954#0 1184935954#1 772204109#1 772204109#2 813891621 813891620"/>
    </vehicle>
    <vehicle id="32" depart="51.20">
        <route edges="423779397#8 423779397#9 423779488#0 423779488#1 423779488#2 423779484#1 423779484#2 -1205389983#2 -1205389983#1 -1205389983#0 -369835476#4 -369835476#3 -369835476#2 -369835476#1 -369835476#0 -1205467781 -1081701745#5 -1081701745#3 -1081701745#2 -1081701745#1 -1081701745#0 1391516347 36801848#3 36801848#4 36801848#5 36801848#6 36801848#7 585189785#0 585189785#2 585189785#2-AddedOffRampEdge 815127176 59035954#0 59035954#1 59035954#2 59035954#4 59035954#5 59035954#6 59035954#6-AddedOffRampEdge 59035954#7 59035954#9 59035954#10-AddedOnRampEdge 59035954#10 59035954#11 35823179#0 189447811"/>
    </vehicle>
    <vehicle id="33" depart="52.80">
        <route edges="-1081305221#1 -1081305221#0 103172953#2 103172953#3 103172953#4 103172953#5 103172953#6 103172953#7 103172953#8 103172953#9 103172953#10 103172953#11 103172953#12 103172953#13 103172953#14 103172953#16 1428925100#0 1428925100#1 58360990#4 58360990#5 36801848#7 585189785#0 585189785#2 585189785#2-AddedOffRampEdge 189430909 36801843#0-AddedOnRampEdge 36801843#0 36801843#1 36801843#2 36801843#3 -718983975#2 -718983975#1 -718983975#0 1428922196#3 1428922196#5 1056582751#0 1056582752#1"/>
    </vehicle>
    <vehicle id="34" depart="54.40">
        <route edges="189289352#2 -1203860733 -774727158#0 189289368#11 782592560#8 782592560#10 782592561#0 -189430901#2 -189430901#1 -189430901#0 -189430903#2 -189430903#1 -189430903#0 -189430866#0 189430893#2 36167764#11 1245233647 -1150130318#0"/>
    </vehicle>
    <vehicle id="35" depart="56.00">