<?xml version="1.0" encoding="UTF-8"?>

<!-- generated on 2026-02-17 12:42:37.218962 by randomTrips.py v1_24_0+0000-b72eb3fabc8
<configuration>
    <net-file value="osm.net.xml"/>
    <output-trip-file value="generated/client1.trips.xml"/>
    <route-file value="generated/client1.rou.xml"/>
    <fringe-factor value="5"/>
    <seed value="11"/>
    <period value="0.8"/>
</configuration>
-->

<routes xmlns:xsi="http://www.w3.org/2001/XMLSchema-instance" xsi:noNamespaceSchemaLocation="http://sumo.dlr.de/xsd/routes_file.xsd">
    <trip id="0" depart="0.00" from="-47652182#1" to="1190366167#2"/>
    <trip id="1" depart="0.80" from="423830489" to="1060429926"/>
    <trip id="2" depart="1.60" from="-952568333" to="1242796502"/>
    <trip id="3" depart="2.40" from="-1283518687#6" to="1081984263#1"/>
    <trip id="4" depart="3.20" from="1214777490#1" to="423391669#2"/>
    <trip id="5" depart="4.00" from="-1082059019#1" to="-423591225#0"/>
    <trip id="6" depart="4.80" from="-1082054984#2" to="423400715#1"/>
    <trip id="7" depart="5.60" from="1428995074#1" to="-1079932963#0"/>
    <trip id="8" depart="6.40" from="776796096#4" to="772164904#1"/>
    <trip id="9" depart="7.20" from="1244535039#1" to="1305177006#13"/>
    <trip id="10" depart="8.00" from="-1238485197#1" to="-1056581947"/>
    <trip id="11" depart="8.80" from="-1308143936" to="-374689130#0"/>
    <trip id="12" depart="9.60" from="-1056583567#3" to="1056590739#0"/>
    <trip id="13" depart="10.40" from="-423779533#1" to="423591311#1"/>
    <trip id="14" depart="11.20" from="103172954#0" to="1428924412"/>
    <trip id="15" depart="12.00" from="-776796095#9" to="169032522"/>
    <trip id="16" depart="12.80" from="-661755675#2" to="-423391753#0"/>
    <trip id="17" depart="13.60" from="977466312#11" to="952621340"/>
    <trip id="18" depart="14.40" from="423400629#6" to="312264429#1"/>
    <trip id="19" depart="15.20" from="-374688983#2" to="-1082003219#4"/>
    <trip id="20" depart="16.00" from="36801848#2" to="-772391522#0"/>
    <trip id="21" depart="16.80" from="423590890#6" to="-717042168"/>
    <trip id="22" depart="17.60" from="717096966#5" to="423607493#5"/>
    <trip id="23" depart="18.40" from="-1012414569#4" to="-279990632#5"/>
    <trip id="24" depart="19.20" from="423779389#4" to="1076543257"/>
    <trip id="25" depart="20.00" from="776552698#0" to="-719075665#2"/>
    <trip id="26" depart="20.80" from="-1081329785#1" to="1376114333#5"/>
    <trip id="27" depart="21.60" from="369837709#2" to="-423391563#11"/>
    <trip id="28" depart="22.40" from="-1081984268" to="-423737588#1"/>
    <trip id="29" depart="23.20" from="718268724#0" to="39451609#9"/>
    <trip id="30" depart="24.00" from="-1136379374#1" to="-392064541"/>
    <trip id="31" depart="24.80" from="-1082233877" to="-1081324526#0"/>
    <trip id="32" depart="25.60" from="374689148#0" to="-168951961#4"/>
    <trip id="33" depart="26.40" from="-1308144508" to="369837702#19"/>
    <trip id="34" depart="27.20" from="-1187835577#1" to="1428955888#1"/>
    <trip id="35" depart="28.00" from="-1133679365#0" to="-952604550#0"/>
    <trip id="36" depart="28.80" from="-1428974753#4" to="-423391563#11"/>
    <trip id="37" depart="29.60" from="772396770#5" to="423400648"/>
    <trip id="38" depart="30.40" from="-423283892#10" to="423754700#2"/>
    <trip id="39" depart="31.20" from="423591007" to="1428930766"/>
    <trip id="40" depart="32.00" from="-1082229013#1" to="875114558#1"/>
    <trip id="41" depart="32.80" from="-1428974756#0" to="-423283913"/>
    <trip id="42" depart="33.60" from="369835649#12" to="-423627884#0"/>
    <trip id="43" depart="34.40" from="-39451643#3" to="-1082059021"/>
    <trip id="44" depart="35.20" from="-1082043233" to="1238264465#0"/>
    <trip id="45" depart="36.00" from="-189447794#4" to="1244553759#1"/>
    <trip id="46" depart="36.80" from="-423591301#2" to="1056582760#4"/>
    <trip id="47" depart="37.60" from="717155782#0" to="1081305221#1"/>
    <trip id="48" depart="38.40" from="1081320987#1" to="423627886#0"/>
    <trip id="49" depart="39.20" from="-1255964179" to="-134496050#0"/>
    <trip id="50" depart="40.00" from="423754780#4" to="423590916#10"/>
    <trip id="51" depart="40.80" from="-189447962#1" to="-189447685#1"/>
    <trip id="52" depart="41.60" from="203569917#9" to="705056990#0"/>
    <trip id="53" depart="42.40" from="-1311733355#2" to="717096962#1"/>
    <trip id="54" depart="43.20" from="423607650#0" to="1245159685"/>
    <trip id="55" depart="44.00" from="-423754770#1" to="-1194076666#1"/>
    <trip id="56" depart="44.80" from="-1056589503" to="759789696#1"/>
    <trip id="57" depart="45.60" from="-189447695#2" to="263819666#2"/>
    <trip id="58" depart="46.40" from="-24576822#24" to="423591052#12"/>
    <trip id="59" depart="47.20" from="1082270696" to="-423590921#5"/>
    <trip id="60" depart="48.00" from="-1245159681" to="36167771"/>
    <trip id="61" depart="48.80" from="-1081318168#1" to="-369837716#2"/>
    <trip id="62" depart="49.60" from="1079981490#0" to="423607573#1"/>
    <trip id="63" depart="50.40" from="1184949593#2" to="-423391762#1"/>
    <trip id="64" depart="51.20" from="423779444" to="-203569923"/>
    <trip id="65" depart="52.00" from="-1056581945" to="-423391562#11"/>
    <trip id="66" depart="52.80" from="-444065242#18" to="-1081327391"/>
    <trip id="67" depart="53.60" from="-1245234388#0" to="-446924545#0"/>
    <trip id="68" depart="54.40" from="1081314870#1" to="-1244505148"/>
    <trip id="69" depart="55.20" from="-423591184#1" to="423754753"/>
    <trip id="70" depart="56.00" from="776552698#0" to="168928126#3"/>
    <trip id="71" depart="56.80" from="1428966211" to="1238289072#0"/>
    <trip id="72" depart="57.60" from="-1203885922" to="-1056590737#0"/>
    <trip id="73" depart="58.40" from="-1056581959" to="423779526#2"/>
    <trip id="74" depart="59.20" from="168928125#10" to="759789697"/>
    <trip id="75" depart="60.00" from="-1056582232" to="1428511836#1"/>
    <trip id="76" depart="60.80" from="-718975696#1" to="369837698#3"/>
    <trip id="77" depart="61.60" from="-423391563#1" to="977466316#1"/>
    <trip id="78" depart="62.40" from="-1081352606" to="1146016954"/>
    <trip id="79" depart="63.20" from="189447978#1" to="423779401#12"/>
    <trip id="80" depart="64.00" from="189447978#3" to="24576822#9"/>
    <trip id="81" depart="64.80" from="374688983#0" to="423867545"/>
    <trip id="82" depart="65.60" from="-423590950" to="189447831#1"/>
    <trip id="83" depart="66.40" from="423754635#1" to="423737590#1"/>
    <trip id="84" depart="67.20" from="-423754732#2" to="423391621"/>
    <trip id="85" depart="68.00" from="423591227#1" to="1214968659#1"/>
    <trip id="86" depart="68.80" from="1203892314" to="-705045235#0"/>
    <trip id="87" depart="69.60" from="1081731561#0" to="1255196288#1"/>
    <trip id="88" depart="70.40" from="-1081717219#0" to="1428922195#0"/>
    <trip id="89" depart="71.20" from="952582626#1" to="423754640#8"/>
    <trip id="90" depart="72.00" from="189447794#6" to="-717096963#0"/>
    <trip id="91" depart="72.80" from="189447930#2" to="1238236489#7"/>
    <trip id="92" depart="73.60" from="-423779533#1" to="423591269#4"/>
    <trip id="93" depart="74.40" from="-1081738395" to="374688983#4"/>
    <trip id="94" depart="75.20" from="-1056583563" to="1244553759#1"/>
    <trip id="95" depart="76.00" from="-718268727#3" to="-369837721#5"/>
    <trip id="96" depart="76.80" from="168927795#0" to="1081327417"/>
    <trip id="97" depart="77.60" from="1184970105#0" to="451099396"/>
    <trip id="98" depart="78.40" from="-235103510#6" to="-1049863764#1"/>
    <trip id="99" depart="79.20" from="-1427060974#1" to="-1429000797#5"/>
    <trip id="100" depart="80.00" from="423754757" to="168951962#4"/>
    <trip id="101" depart="80.80" from="-423779541#6" to="423754763#1"/>
    <trip id="102" depart="81.60" from="-423391708#1" to="189131373#2"/>
    <trip id="103" depart="82.40" from="-1339841996" to="1038929941#0"/>
    <trip id="104" depart="83.20" from="39452784#2" to="423867495"/>
    <trip id="105" depart="84.00" from="423607623#4" to="-715646314#0"/>
    <trip id="106" depart="84.80" from="1081738394#1" to="-423607550#0"/>
    <trip id="107" depart="85.60" from="423391737#1" to="423607520"/>
    <trip id="108" depart="86.40" from="189131387#1" to="717096961#0"/>
    <trip id="109" depart="87.20" from="-369837717#6" to="-1428999970#3"/>
    <trip id="110" depart="88.00" from="-462681623#5" to="-423391701#1"/>
    <trip id="111" depart="88.80" from="-1428980478#1" to="-875092398#0"/>
    <trip id="112" depart="89.60" from="1205466455" to="1081318536#1"/>
    <trip id="113" depart="90.40" from="776796096#11" to="1056582748#1"/>
    <trip id="114" depart="91.20" from="-1081341676#6" to="-1056588287"/>
    <trip id="115" depart="92.00" from="423607484#0" to="-1078211189"/>
    <trip id="116" depart="92.80" from="169033821#3" to="1211542995"/>
    <trip id="117" depart="93.60" from="-423283928#2" to="423391650"/>
    <trip id="118" depart="94.40" from="-1056582214#0" to="-1244556308"/>
    <trip id="119" depart="95.20" from="-623832916#4" to="-1056582751#2"/>
    <trip id="120" depart="96.00" from="423391563#7" to="-374688949"/>
    <trip id="121" depart="96.80" from="-1205467782#0" to="-1081105917#6"/>
    <trip id="122" depart="97.60" from="1212721760#1" to="1056582230#0"/>
    <trip id="123" depart="98.40" from="1214777491" to="168928124#0"/>
    <trip id="124" depart="99.20" from="39452787#7" to="718264165#4"/>
    <trip id="125" depart="100.00" from="1428516659#1" to="-189447897#3"/>
    <trip id="126" depart="100.80" from="-717448198#4" to="-168952076#2"/>
    <trip id="127" depart="101.60" from="-1040505180#1" to="1079932963#0"/>
    <trip id="128" depart="102.40" from="189289365#0" to="-168952076#7"/>
    <trip id="129" depart="103.20" from="-369837702#31" to="-423754767#0"/>
    <trip id="130" depart="104.00" from="150881409#10" to="1082064221#1"/>
    <trip id="131" depart="104.80" from="1184970104#2" to="392064540"/>
    <trip id="132" depart="105.60" from="-423627850" to="423391654#0"/>
    <trip id="133" depart="106.40" from="423754764#0" to="-1123319646#1"/>
    <trip id="134" depart="107.20" from="462681622#0" to="36801847#5"/>
    <trip id="135" depart="108.00" from="-1187193216#2" to="1056583152#0"/>
    <trip id="136" depart="108.80" from="1205466050" to="423779523#2"/>
    <trip id="137" depart="109.60" from="-423607489#2" to="1205847402#4"/>
    <trip id="138" depart="110.40" from="423607602#0" to="423391722#1"/>
    <trip id="139" depart="111.20" from="661332532#0" to="1056590736#0"/>
    <trip id="140" depart="112.00" from="1244505146" to="-203569942#0"/>
    <trip id="141" depart="112.80" from="189447685#1" to="423590916#9"/>
    <trip id="142" depart="113.60" from="1238485202#2" to="35308233#18"/>
    <trip id="143" depart="114.40" from="-1428975690" to="423779400#9"/>
    <trip id="144" depart="115.20" from="776552698#0" to="775237180#0"/>
    <trip id="145" depart="116.00" from="1056582713" to="423391628#0"/>
    <trip id="146" depart="116.80" from="-423391583" to="423779523#2"/>
    <trip id="147" depart="117.60" from="423591055#10" to="-423754787#0"/>
    <trip id="148" depart="118.40" from="-1081731563#1" to="1053499502#0"/>
    <trip id="149" depart="119.20" from="1056590737#1" to="414771608"/>
    <trip id="150" depart="120.00" from="-772438402#1" to="-1056585530"/>
    <trip id="151" depart="120.80" from="408821895" to="-1081665242#0"/>
    <trip id="152" depart="121.60" from="39451609#1" to="-168927798#5"/>
    <trip id="153" depart="122.40" from="-423400652" to="423391563#2"/>
    <trip id="154" depart="123.20" from="-1205459744#0" to="-1308149439#0"/>
    <trip id="155" depart="124.00" from="1012414573#1" to="36804379#2"/>
    <trip id="156" depart="124.80" from="423391762#8" to="189447921#3"/>
    <trip id="157" depart="125.60" from="661489960" to="1081317172"/>
    <trip id="158" depart="126.40" from="-168928123#7" to="1082233877"/>
    <trip id="159" depart="127.20" from="-374689128#1" to="369835649#16"/>
    <trip id="160" depart="128.00" from="1238271284#1" to="1082227001"/>
    <trip id="161" depart="128.80" from="423400704#0" to="1190376363#1"/>
    <trip id="162" depart="129.60" from="-423293430" to="-682895481#0"/>
    <trip id="163" depart="130.40" from="423400725#7" to="423779401#8"/>
    <trip id="164" depart="131.20" from="-1428930396#1" to="423607547#0"/>
    <trip id="165" depart="132.00" from="764071327#2" to="1082229000#1"/>
    <trip id="166" depart="132.80" from="1081316413" to="-189447927#3"/>
    <trip id="167" depart="133.60" from="1056582244#1" to="1081665242#2"/>
    <trip id="168" depart="134.40" from="1125540678" to="-1056585522#2"/>
    <trip id="169" depart="135.20" from="764071334#1" to="1082043234"/>
    <trip id="170" depart="136.00" from="-423737592#0" to="423391762#4"/>
    <trip id="171" depart="136.80" from="1081105917#8" to="1081314870#2"/>
    <trip id="172" depart="137.60" from="1428966210#2" to="-1081728823"/>
    <trip id="173" depart="138.40" from="1056582734" to="-813891621"/>
    <trip id="174" depart="139.20" from="717096960#1" to="462711872#1"/>
    <trip id="175" depart="140.00" from="-369837689#0" to="1079934643#1"/>
    <trip id="176" depart="140.80" from="-1185438185#0" to="1040422762"/>
    <trip id="177" depart="141.60" from="423283893#6" to="423779401#9"/>
    <trip id="178" depart="142.40" from="-717462064" to="-423607568#0"/>
    <trip id="179" depart="143.20" from="-1308241551#1" to="1306585411#0"/>
    <trip id="180" depart="144.00" from="423867506" to="-1244504292"/>
    <trip id="181" depart="144.80" from="369837713#3" to="-1056582725"/>
    <trip id="182" depart="145.60" from="-1311506651" to="-369837712#5"/>
    <trip id="183" depart="146.40" from="1428926142" to="-423607650#0"/>
    <trip id="184" depart="147.20" from="-423591055#7" to="1308143376"/>
    <trip id="185" depart="148.00" from="-1082270696" to="369837700#1"/>
    <trip id="186" depart="148.80" from="-1171906313#1" to="1081746637"/>
    <trip id="187" depart="149.60" from="-189447978#1" to="-189447843#2"/>
    <trip id="188" depart="150.40" from="1056581930#0" to="1040796695"/>
    <trip id="189" depart="151.20" from="-423591331#6" to="-782592561#5"/>
    <trip id="190" depart="152.00" from="1053545100#1" to="-1428629921"/>
    <trip id="191" depart="152.80" from="-1428542844#0" to="1389980686"/>
    <trip id="192" depart="153.60" from="1238269980#1" to="1082241073#1"/>
    <trip id="193" depart="154.40" from="423590916#1" to="1275468136#2"/>
    <trip id="194" depart="155.20" from="423591060#8" to="-370184227#6"/>
    <trip id="195" depart="156.00" from="203569944#0" to="423400725#0"/>
    <trip id="196" depart="156.80" from="423754703#1" to="-423607544#0"/>
    <trip id="197" depart="157.60" from="-423293480#4" to="462711869#1"/>
    <trip id="198" depart="158.40" from="-1429169115#1" to="977466312#26"/>
    <trip id="199" depart="159.20" from="423627858" to="-1244535039#0"/>
    <trip id="200" depart="160.00" from="-189447712#2" to="369835485#2"/>
    <trip id="201" depart="160.80" from="-313488536#0" to="-1184947728#2"/>
    <trip id="202" depart="161.60" from="423391655" to="-952621354"/>
    <trip id="203" depart="162.40" from="374688950" to="-1244014639"/>
    <trip id="204" depart="163.20" from="-423737611#1" to="189447831#2"/>
    <trip id="205" depart="164.00" from="-1056581959" to="-189447927#2"/>
    <trip id="206" depart="164.80" from="1428454366#1" to="423779531#3"/>
    <trip id="207" depart="165.60" from="764071327#1" to="-1236550873#8"/>
    <trip id="208" depart="166.40" from="-875150162#1" to="39451612#0"/>
    <trip id="209" depart="167.20" from="-875114545#0" to="189447843#6"/>
    <trip id="210" depart="168.00" from="-1306588290" to="-1082003221#0"/>
    <trip id="211" depart="168.80" from="-1116507605#0" to="-1064238108#0"/>
    <trip id="212" depart="169.60" from="1058039132#1" to="1082004724"/>
    <trip id="213" depart="170.40" from="1081310721" to="-1303021842"/>
    <trip id="214" depart="171.20" from="-1283518687#3" to="-203569920"/>
    <trip id="215" depart="172.00" from="423400629#5" to="875150164#1"/>
    <trip id="216" depart="172.80" from="423867637#0" to="-1184618343"/>
    <trip id="217" depart="173.60" from="-1081312724" to="717138662#0"/>
    <trip id="218" depart="174.40" from="-691582319#2" to="39452787#11"/>
    <trip id="219" depart="175.20" from="-423391708#1" to="1064238111#0"/>
    <trip id="220" depart="176.00" from="-977466320#2" to="1038727266#0"/>
    <trip id="221" depart="176.80" from="1120275880#2" to="-1053499504#1"/>
    <trip id="222" depart="177.60" from="168928125#2" to="423591325#6"/>
    <trip id="223" depart="178.40" from="-1255465925" to="1056583160"/>
    <trip id="224" depart="179.20" from="203569917#7" to="-773603310#9"/>
    <trip id="225" depart="180.00" from="-1311684301#1" to="-1428965770#0"/>
    <trip id="226" depart="180.80" from="-953260280#0" to="-1056581952#0"/>
    <trip id="227" depart="181.60" from="423737587" to="423400633"/>
    <trip id="228" depart="182.40" from="168952076#18" to="423607668#1"/>
    <trip id="229" depart="183.20" from="1212721761" to="-773601312#2"/>
    <trip id="230" depart="184.00" from="1117754460" to="1081701742"/>
    <trip id="231" depart="184.80" from="777684019#4" to="423400665#1"/>
    <trip id="232" depart="185.60" from="-279990639#1" to="423779531#1"/>
    <trip id="233" depart="186.40" from="235103510#18" to="423283929#1"/>
    <trip id="234" depart="187.20" from="423281053#2" to="-773756465#1"/>
    <trip id="235" depart="188.00" from="423737622#0" to="423754640#8"/>
    <trip id="236" depart="188.80" from="1428999970#5" to="408832999"/>
    <trip id="237" depart="189.60" from="36801843#0-AddedOnRampEdge" to="-773803846#0"/>
    <trip id="238" depart="190.40" from="189447687#2" to="-1082003221#0"/>
    <trip id="239" depart="191.20" from="-423400725#5" to="1070111907#3"/>
    <trip id="240" depart="192.00" from="-1040505178" to="-423779442#8"/>
    <trip id="241" depart="192.80" from="1238270504#1" to="1311507272"/>
    <trip id="242" depart="193.60" from="-189289356#1" to="715669942"/>
    <trip id="243" depart="194.40" from="1283135043#7" to="-423737633#0"/>
    <trip id="244" depart="195.20" from="1249851974#0" to="1205855896#4"/>
    <trip id="245" depart="196.00" from="1056581967#2" to="-717138660#0"/>
    <trip id="246" depart="196.80" from="977466323#3" to="1428930768#2"/>
    <trip id="247" depart="197.60" from="168928126#0" to="39451643#2"/>
    <trip id="248" depart="198.40" from="776547127" to="-1056582725"/>
    <trip id="249" depart="199.20" from="1185438185#3" to="369837720#6"/>
    <trip id="250" depart="200.00" from="-24576822#17" to="-772438403#0"/>
    <trip id="251" depart="200.80" from="-1079983395#1" to="-189447794#9"/>
    <trip id="252" depart="201.60" from="-423591331#5" to="-1185440251"/>
    <trip id="253" depart="202.40" from="-189447980#5" to="423779471#0"/>
    <trip id="254" depart="203.20" from="1056590731#0" to="1081735814"/>
    <trip id="255" depart="204.00" from="719630738#0" to="1205459744#0"/>
    <trip id="256" depart="204.80" from="952604552" to="1428542844#6"/>
    <trip id="257" depart="205.60" from="408838134#0" to="-1082229012#1"/>
    <trip id="258" depart="206.40" from="1116507603#4" to="39451618#1"/>
    <trip id="259" depart="207.20" from="-1074438110#0" to="58801155#3"/>
    <trip id="260" depart="208.00" from="-1243970306#1" to="1078211189"/>
    <trip id="261" depart="208.80" from="-1244504879" to="1081321765#1"/>
    <trip id="262" depart="209.60" from="1171067986#0" to="-1081320988"/>
    <trip id="263" depart="210.40" from="661334130#5" to="-952604549"/>
    <trip id="264" depart="211.20" from="1043326300#1" to="1244517041"/>
    <trip id="265" depart="212.00" from="-423591228#3" to="-423400725#8"/>
    <trip id="266" depart="212.80" from="1244553758#0" to="1190525990#0"/>
    <trip id="267" depart="213.60" from="-370186846#6" to="35308228#7"/>
    <trip id="268" depart="214.40" from="-392064555" to="-1056581923#2"/>
    <trip id="269" depart="215.20" from="-189447843#6" to="-1079934643#0"/>
    <trip id="270" depart="216.00" from="-1238302002#0" to="380700998#0"/>
    <trip id="271" depart="216.80" from="-423607658#4" to="423779392#2"/>
    <trip id="272" depart="217.60" from="263819666#2" to="-1081136311#0"/>
    <trip id="273" depart="218.40" from="875114546#1" to="715646317#1"/>
    <trip id="274" depart="219.20" from="-1081329787" to="423779470#0"/>
    <trip id="275" depart="220.00" from="-423779406" to="1081105918#0"/>
    <trip id="276" depart="220.80" from="773120298#7" to="-374689144#2"/>
    <trip id="277" depart="221.60" from="1040429412#1" to="682347520#6"/>
    <trip id="278" depart="222.40" from="189447687#5" to="1070111904#2"/>
    <trip id="279" depart="223.20" from="774669066#0" to="423590912#6"/>
    <trip id="280" depart="224.00" from="1123304903#2" to="-1236550873#0"/>
    <trip id="281" depart="224.80" from="1203870551#2" to="1056583567#4"/>
    <trip id="282" depart="225.60" from="-1428515096#0" to="-1081308072#0"/>
    <trip id="283" depart="226.40" from="1050440931" to="-1243995888#4"/>
    <trip id="284" depart="227.20" from="-423867514" to="189131392#3"/>
    <trip id="285" depart="228.00" from="-661332531" to="-423293414"/>
    <trip id="286" depart="228.80" from="1081731557#0" to="-952595747"/>
    <trip id="287" depart="229.60" from="369837707#5" to="1085812641"/>
    <trip id="288" depart="230.40" from="977466312#11" to="717155787"/>
    <trip id="289" depart="231.20" from="189447924#2" to="-374688967#1"/>
    <trip id="290" depart="232.00" from="-1123867834#1" to="423754770#0"/>
    <trip id="291" depart="232.80" from="369837724#9" to="1311728728#10"/>
    <trip id="292" depart="233.60" from="-423591137#1" to="-423391623"/>
    <trip id="293" depart="234.40" from="1428542849#5" to="1203864437"/>
    <trip id="294" depart="235.20" from="313905500#0" to="-189447685#1"/>
    <trip id="295" depart="236.00" from="-189447957#1" to="776796095#3"/>
    <trip id="296" depart="236.80" from="423779440#5" to="423737640#0"/>
    <trip id="297" depart="237.60" from="-1056590734" to="-1081329786#0"/>
    <trip id="298" depart="238.40" from="-369837700#5" to="-977466316#0"/>
    <trip id="299" depart="239.20" from="1203868676#0" to="-1190376364#0"/>
    <trip id="300" depart="240.00" from="1056583186" to="-1082059009#2"/>
    <trip id="301" depart="240.80" from="-1081984263#1" to="189430930"/>
    <trip id="302" depart="241.60" from="1056590753#0" to="1386975351"/>
    <trip id="303" depart="242.40" from="-423591319#4" to="1081105920#2"/>
    <trip id="304" depart="243.20" from="-1428957186#0" to="-423754739#0"/>
    <trip id="305" depart="244.00" from="235103510#7" to="423591271#3"/>
    <trip id="306" depart="244.80" from="408821895" to="1311506141"/>
    <trip id="307" depart="245.60" from="369835481#0" to="-343503830#9"/>
    <trip id="308" depart="246.40" from="-423754787#1" to="-423283912#1"/>
    <trip id="309" depart="247.20" from="410975171#1" to="-446924545#1"/>
    <trip id="310" depart="248.00" from="1244535039#0" to="875114557#3"/>
    <trip id="311" depart="248.80" from="-423391682#1" to="1171067986#1"/>
    <trip id="312" depart="249.60" from="24576807#7" to="462681618#12"/>
    <trip id="313" depart="250.40" from="-423779397#6" to="-449578152"/>
    <trip id="314" depart="251.20" from="-1082227001" to="423737618#4"/>
    <trip id="315" depart="252.00" from="-1081668752" to="-1118281733#0"/>
    <trip id="316" depart="252.80" from="1081107625#2" to="1081308827"/>
    <trip id="317" depart="253.60" from="1428629921" to="-423591142#0"/>
    <trip id="318" depart="254.40" from="369837702#13" to="-1082229009#0"/>
    <trip id="319" depart="255.20" from="-1428974756#1" to="168952079#3"/>
    <trip id="320" depart="256.00" from="-1081728825#2" to="-423591228#1"/>
    <trip id="321" depart="256.80" from="189447712#6" to="202969533#30"/>
    <trip id="322" depart="257.60" from="-370184278#5" to="-1255518665"/>
    <trip id="323" depart="258.40" from="-423591088#1" to="369835483#12"/>
    <trip id="324" depart="259.20" from="-423591239" to="-1238263471#0"/>
    <trip id="325" depart="260.00" from="187980737#2" to="1205855894#4"/>
    <trip id="326" depart="260.80" from="423779471#1" to="691582319#2"/>
    <trip id="327" depart="261.60" from="423779401#8" to="1043326300#0"/>
    <trip id="328" depart="262.40" from="39451632#2" to="-423591256#4"/>
    <trip id="329" depart="263.20" from="-423391560#11" to="-772164903"/>
    <trip id="330" depart="264.00" from="47652180#5" to="423754782#5"/>
    <trip id="331" depart="264.80" from="-189447927#3" to="-423779533#1"/>
    <trip id="332" depart="265.60" from="-423591228#3" to="-423846683#0"/>
    <trip id="333" depart="266.40" from="-423627883#3" to="-717089710#1"/>
    <trip id="334" depart="267.20" from="-1311512485#2" to="1203863443"/>
    <trip id="335" depart="268.00" from="374689148#1" to="1125540678"/>
    <trip id="336" depart="268.80" from="423391721#1" to="1203405287"/>
    <trip id="337" depart="269.60" from="-1247113177" to="39451614#2"/>
    <trip id="338" depart="270.40" from="423607633#0" to="-423400646#1"/>
    <trip id="339" depart="271.20" from="1056585530" to="1203882109"/>
    <trip id="340" depart="272.00" from="719264148#0" to="1429146383#8"/>
    <trip id="341" depart="272.80" from="39451656#2" to="-1081665242#0"/>
    <trip id="342" depart="273.60" from="1056588278#0" to="423391563#5"/>
    <trip id="343" depart="274.40" from="-1081738396" to="-1117138584#0"/>
    <trip id="344" depart="275.20" from="189447978#3" to="423779397#7"/>
    <trip id="345" depart="276.00" from="-1081738400" to="1425310871#5"/>
    <trip id="346" depart="276.80" from="-1214794140" to="370186850#5"/>
    <trip id="347" depart="277.60" from="1244294070" to="-380700998#21"/>
    <trip id="348" depart="278.40" from="-168928009#9" to="39452787#5"/>
    <trip id="349" depart="279.20" from="1039518915#0" to="39452787#10"/>
    <trip id="350" depart="280.00" from="-423627860" to="-423737633#0"/>
    <trip id="351" depart="280.80" from="764071326#2" to="189430870#4"/>
    <trip id="352" depart="281.60" from="-774633867" to="1121215127"/>
    <trip id="353" depart="282.40" from="189430934#6" to="312264429#7"/>
    <trip id="354" depart="283.20" from="423779434" to="-776552698#2"/>
    <trip id="355" depart="284.00" from="423590937" to="423400674#1"/>
    <trip id="356" depart="284.80" from="423391686#0" to="423754732#7"/>
    <trip id="357" depart="285.60" from="717096965#9" to="1428924240#1"/>
    <trip id="358" depart="286.40" from="1040429415#0" to="313905501#6"/>
    <trip id="359" depart="287.20" from="39451626#1" to="-952621353"/>
    <trip id="360" depart="288.00" from="-423754763#1" to="-1283529172#1"/>
    <trip id="361" depart="288.80" from="203569946#2" to="886278762"/>
    <trip id="362" depart="289.60" from="-423591331#2" to="-1428980478#1"/>
    <trip id="363" depart="290.40" from="-1428542844#2" to="-977466312#8"/>
    <trip id="364" depart="291.20" from="-374689139#1" to="773601310#1"/>
    <trip id="365" depart="292.00" from="-1081305470" to="-423591301#1"/>
    <trip id="366" depart="292.80" from="-1125540681" to="1428996008#0"/>
    <trip id="367" depart="293.60" from="369837702#24" to="-168952078#2"/>
    <trip id="368" depart="294.40" from="-1081313214" to="1056587306#1"/>
    <trip id="369" depart="295.20" from="1081979042" to="423779517#3"/>
    <trip id="370" depart="296.00" from="-1056588302#1" to="-1211560821#1"/>
    <trip id="371" depart="296.80" from="-1283518687#3" to="-369835482#7"/>
    <trip id="372" depart="297.60" from="-189430887#0" to="35308230#9"/>
    <trip id="373" depart="298.40" from="1082241061#0" to="-369837702#19"/>
    <trip id="374" depart="299.20" from="-1283529173" to="-423400638"/>
    <trip id="375" depart="300.00" from="-1244553185#0" to="39451609#10"/>
    <trip id="376" depart="300.80" from="-423293430" to="1171066283#2"/>
    <trip id="377" depart="301.60" from="423283904" to="1081113606#6"/>
    <trip id="378" depart="302.40" from="-343503829#1" to="423754724#1"/>
    <trip id="379" depart="303.20" from="423779421#0" to="-423754713"/>
    <trip id="380" depart="304.00" from="1056588297" to="717471458#3"/>
    <trip id="381" depart="304.80" from="-718975696#7" to="-369835649#14"/>
    <trip id="382" depart="305.60" from="39451614#4" to="-715669944#1"/>
    <trip id="383" depart="306.40" from="1050440004#0" to="1082022156"/>
    <trip id="384" depart="307.20" from="-369837708#1" to="875150164#0"/>
    <trip id="385" depart="308.00" from="1245159680#1" to="-374688953"/>
    <trip id="386" depart="308.80" from="-1040796561#0" to="1079932965#1"/>
    <trip id="387" depart="309.60" from="189131398#8" to="1249868223"/>
    <trip id="388" depart="310.40" from="-1238475950" to="-1427060972#2"/>
    <trip id="389" depart="311.20" from="-423391616" to="-423283924#0"/>
    <trip id="390" depart="312.00" from="423591311#1" to="1082054983#0"/>
    <trip id="391" depart="312.80" from="1238240666#0" to="952595743"/>
    <trip id="392" depart="313.60" from="-369835485#3" to="1118281733#2"/>
    <trip id="393" depart="314.40" from="-1236755720" to="423280939#2"/>
    <trip id="394" depart="315.20" from="-103172942#17" to="423590972"/>
    <trip id="395" depart="316.00" from="423530949" to="423590990"/>
    <trip id="396" depart="316.80" from="-1081731561#1" to="-423391563#14"/>
    <trip id="397" depart="317.60" from="189430863#1" to="-1184970104#0"/>
    <trip id="398" depart="318.40" from="-718264165#4" to="1070111906#1"/>
    <trip id="399" depart="319.20" from="717054146#1" to="1242790509"/>
    <trip id="400" depart="320.00" from="423591083#0" to="-423591227#0"/>
    <trip id="401" depart="320.80" from="374688947#14" to="-875150164#3"/>